<?xml version='1.0' encoding='utf-8'?>
<trips><trip id="r_axs_got_aEr____1_car_aggr4.0" depart="4843.92" from="lane_entry_A" to="lane_exit_D" type="car_aggr4" /><trip id="r_luz_tun_aAl_eEr_1_car_aggr4.0" depart="4958.47" from="lane_entry_C" to="lane_exit_B" type="car_aggr4" /><trip id="r_kla_tun_A______1_car_aggr2.0" depart="5216.32" from="lane_entry_C" to="lane_exit_B" type="car_aggr2" /><trip id="r_kla_sus_A______1_car_aggr3.0" depart="5220.76" from="lane_entry_C" to="lane_exit_B" type="car_aggr3" /><trip id="r_luz_tun_aAl_eEr_1_car_aggr5.0" depart="5294.59" from="lane_entry_C" to="lane_exit_B" type="car_aggr5" /><trip id="r_got_kla_A______1_car_aggr3.0" depart="5324.24" from="lane_entry_B" to="lane_exit_C" type="car_aggr3" /><trip id="r_kla_fur_KS_____1_car_aggr5.0" depart="5435.73" from="lane_entry_C" to="lane_exit_D" type="car_aggr5" /><trip id="r_tun_kla_A______1_car_aggr3.0" depart="5501.24" from="lane_entry_B" to="lane_exit_C" type="car_aggr3" /><trip id="r_tun_kla_A______1_car_aggr5.0" depart="5504.76" from="lane_entry_B" to="lane_exit_C" type="car_aggr5" /><trip id="r_tun_kla_A______1_car_aggr5.1" depart="5542.13" from="lane_entry_B" to="lane_exit_C" type="car_aggr5" /><trip id="r_luz_tun_aAl_eEr_1_car_aggr2.0" depart="5557.14" from="lane_entry_C" to="lane_exit_B" type="car_aggr2" /><trip id="r_luz_fur_KS_____1_car_aggr3.0" depart="5697.07" from="lane_entry_C" to="lane_exit_D" type="car_aggr3" /><trip id="r_luz_fur_KS_____1_car_aggr5.0" depart="5700.23" from="lane_entry_C" to="lane_exit_D" type="car_aggr5" /><trip id="r_luz_fur_KS_____1_small_truck.0" depart="5712.86" from="lane_entry_C" to="lane_exit_D" type="small_truck" /><trip id="r_kla_fur_KS_____1_car_aggr2.0" depart="5762.37" from="lane_entry_C" to="lane_exit_D" type="car_aggr2" /><trip id="r_kla_fur_KS_____1_car_aggr1.0" depart="5769.17" from="lane_entry_C" to="lane_exit_D" type="car_aggr1" /><trip id="r_luz_tun_aAl_eEr_1_small_truck.0" depart="5791.64" from="lane_entry_C" to="lane_exit_B" type="small_truck" /><trip id="r_tun_kla_A______1_car_aggr5.2" depart="5804.76" from="lane_entry_B" to="lane_exit_C" type="car_aggr5" /><trip id="r_luz_got_aEr_____1_motorbike.0" depart="5855.84" from="lane_entry_A" to="lane_exit_D" type="motorbike" /><trip id="r_tun_kla_A______1_car_aggr2.0" depart="5936.37" from="lane_entry_B" to="lane_exit_C" type="car_aggr2" /><trip id="r_tun_kla_A______1_car_aggr3.1" depart="5964.95" from="lane_entry_B" to="lane_exit_C" type="car_aggr3" /><trip id="r_luz_fur_KS_____1_car_aggr1.0" depart="5979.87" from="lane_entry_C" to="lane_exit_D" type="car_aggr1" /><trip id="r_luz_fur_KS_____1_motorbike.0" depart="5983.83" from="lane_entry_C" to="lane_exit_D" type="motorbike" /><trip id="r_luz_tun_aAl_eEr_1_small_truck.1" depart="5987.9" from="lane_entry_C" to="lane_exit_B" type="small_truck" /><trip id="r_alt_and_1_1_motorbike.0" depart="5992.36" from="lane_entry_C" to="lane_exit_D" type="motorbike" /><trip id="r_luz_tun_aAl_eEr_1_car_aggr5.1" depart="5995.56" from="lane_entry_C" to="lane_exit_B" type="car_aggr5" /><trip id="r_tun_kla_A______1_motorbike.0" depart="6030.05" from="lane_entry_B" to="lane_exit_C" type="motorbike" /><trip id="r_kla_oba_KS_____1_motorbike.0" depart="6036.02" from="lane_entry_C" to="lane_exit_D" type="motorbike" /><trip id="r_tun_kla_A______1_car_aggr3.2" depart="6133.38" from="lane_entry_B" to="lane_exit_C" type="car_aggr3" /><trip id="r_tun_kla_A______1_car_aggr5.3" depart="6248.21" from="lane_entry_B" to="lane_exit_C" type="car_aggr5" /><trip id="r_luz_fur_KS_____1_car_aggr5.1" depart="6275.86" from="lane_entry_C" to="lane_exit_D" type="car_aggr5" /><trip id="r_tun_kla_A______1_small_truck.0" depart="6320.1" from="lane_entry_B" to="lane_exit_C" type="small_truck" /><trip id="r_tun_kla_A______1_car_aggr3.3" depart="6412.91" from="lane_entry_B" to="lane_exit_C" type="car_aggr3" /><trip id="r_alt_and_1_1_car_aggr5.0" depart="6432.56" from="lane_entry_C" to="lane_exit_D" type="car_aggr5" /><trip id="r_tun_kla_A______1_car_aggr1.0" depart="6456.79" from="lane_entry_B" to="lane_exit_C" type="car_aggr1" /><trip id="r_tun_kla_A______1_car_aggr3.4" depart="6512.35" from="lane_entry_B" to="lane_exit_C" type="car_aggr3" /><trip id="r_got_luz_KS_1_big_truck.0" depart="6749.63" from="lane_entry_D" to="lane_exit_C" type="big_truck" /><trip id="r_got_luz_KS_1_car_aggr4.0" depart="6753.71" from="lane_entry_D" to="lane_exit_C" type="car_aggr4" /><trip id="r_luz_got_aEr_____1_car_aggr1.0" depart="6777.02" from="lane_entry_A" to="lane_exit_D" type="car_aggr1" /><trip id="r_luz_tun_aAl_eEr_1_motorbike.0" depart="6824.94" from="lane_entry_C" to="lane_exit_B" type="motorbike" /><trip id="r_luz_fur_KS_____1_motorbike.1" depart="6896.96" from="lane_entry_C" to="lane_exit_D" type="motorbike" /><trip id="r_luz_tun_aAl_eEr_1_small_truck.2" depart="6968.52" from="lane_entry_C" to="lane_exit_B" type="small_truck" /><trip id="r_tun_kla_A______1_car_aggr3.5" depart="6978.52" from="lane_entry_B" to="lane_exit_C" type="car_aggr3" /><trip id="r_got_luz_KS_1_motorbike.0" depart="7082.27" from="lane_entry_D" to="lane_exit_C" type="motorbike" /><trip id="r_luz_got_aEr_____1_car_aggr5.0" depart="7109.17" from="lane_entry_A" to="lane_exit_D" type="car_aggr5" /><trip id="r_luz_fur_KS_____1_small_truck.1" depart="7160.68" from="lane_entry_C" to="lane_exit_D" type="small_truck" /><trip id="r_luz_fur_KS_____1_car_aggr5.2" depart="7164.05" from="lane_entry_C" to="lane_exit_D" type="car_aggr5" /><trip id="r_luz_tun_aAl_eEr_1_small_truck.3" depart="7342.01" from="lane_entry_C" to="lane_exit_B" type="small_truck" /><trip id="r_alt_and_1_1_car_aggr1.0" depart="7397.55" from="lane_entry_C" to="lane_exit_D" type="car_aggr1" /><trip id="r_got_luz_KS_1_car_aggr2.0" depart="7402.28" from="lane_entry_D" to="lane_exit_C" type="car_aggr2" /><trip id="r_tun_kla_A______1_car_aggr2.1" depart="7468.29" from="lane_entry_B" to="lane_exit_C" type="car_aggr2" /><trip id="r_axs_got_aEr____1_car_aggr2.0" depart="7484.94" from="lane_entry_A" to="lane_exit_D" type="car_aggr2" /><trip id="r_got_luz_KS_1_car_aggr1.0" depart="7536.33" from="lane_entry_D" to="lane_exit_C" type="car_aggr1" /><trip id="r_luz_tun_aAl_eEr_1_motorbike.1" depart="7559.01" from="lane_entry_C" to="lane_exit_B" type="motorbike" /><trip id="r_tun_kla_A______1_car_aggr2.2" depart="7560.94" from="lane_entry_B" to="lane_exit_C" type="car_aggr2" /><trip id="r_axs_got_aEr____1_car_aggr4.1" depart="7592.13" from="lane_entry_A" to="lane_exit_D" type="car_aggr4" /><trip id="r_tun_kla_A______1_car_aggr1.1" depart="7663.79" from="lane_entry_B" to="lane_exit_C" type="car_aggr1" /><trip id="r_tun_kla_A______1_car_aggr4.0" depart="7673.01" from="lane_entry_B" to="lane_exit_C" type="car_aggr4" /><trip id="r_tun_kla_A______1_car_aggr3.6" depart="7733.75" from="lane_entry_B" to="lane_exit_C" type="car_aggr3" /><trip id="r_tun_kla_A______1_car_aggr5.4" depart="7737.12" from="lane_entry_B" to="lane_exit_C" type="car_aggr5" /><trip id="r_luz_fur_KS_____1_car_aggr2.0" depart="7778.28" from="lane_entry_C" to="lane_exit_D" type="car_aggr2" /><trip id="r_got_luz_KS_1_car_aggr2.1" depart="7870.5" from="lane_entry_D" to="lane_exit_C" type="car_aggr2" /><trip id="r_luz_tun_aAl_eEr_1_car_aggr2.1" depart="7901.96" from="lane_entry_C" to="lane_exit_B" type="car_aggr2" /><trip id="r_luz_tun_aAl_eEr_1_car_aggr1.0" depart="7908.67" from="lane_entry_C" to="lane_exit_B" type="car_aggr1" /><trip id="r_luz_fur_KS_____1_motorbike.2" depart="8047.45" from="lane_entry_C" to="lane_exit_D" type="motorbike" /><trip id="r_tun_kla_A______1_motorbike.1" depart="8257.99" from="lane_entry_B" to="lane_exit_C" type="motorbike" /><trip id="r_tun_kla_A______1_motorbike.2" depart="8269.01" from="lane_entry_B" to="lane_exit_C" type="motorbike" /><trip id="r_tun_kla_A______1_car_aggr2.3" depart="8301.32" from="lane_entry_B" to="lane_exit_C" type="car_aggr2" /><trip id="r_luz_tun_aAl_eEr_1_car_aggr4.1" depart="8329.49" from="lane_entry_C" to="lane_exit_B" type="car_aggr4" /><trip id="r_tun_kla_A______1_car_aggr5.5" depart="8386.22" from="lane_entry_B" to="lane_exit_C" type="car_aggr5" /><trip id="r_luz_fur_KS_____1_car_aggr5.3" depart="8397.2" from="lane_entry_C" to="lane_exit_D" type="car_aggr5" /><trip id="r_got_luz_KS_1_small_truck.0" depart="8591.59" from="lane_entry_D" to="lane_exit_C" type="small_truck" /><trip id="r_kla_tun_A______2_car_aggr5.0" depart="8620.38" from="lane_entry_C" to="lane_exit_B" type="car_aggr5" /><trip id="r_luz_tun_aAl_eEr_1_motorbike.2" depart="8696.2" from="lane_entry_C" to="lane_exit_B" type="motorbike" /><trip id="r_luz_tun_aAl_eEr_2_car_aggr5.0" depart="8787.03" from="lane_entry_C" to="lane_exit_B" type="car_aggr5" /><trip id="r_axs_got_aEr____2_car_aggr5.0" depart="8882.61" from="lane_entry_A" to="lane_exit_D" type="car_aggr5" /><trip id="r_tun_kla_A______1_car_aggr4.1" depart="8900.89" from="lane_entry_B" to="lane_exit_C" type="car_aggr4" /><trip id="r_tun_kla_A______2_car_aggr4.0" depart="8931.11" from="lane_entry_B" to="lane_exit_C" type="car_aggr4" /><trip id="r_axs_got_aEr____2_car_aggr3.0" depart="8998.09" from="lane_entry_A" to="lane_exit_D" type="car_aggr3" /><trip id="r_sus_kla_A______2_car_aggr5.0" depart="9220.01" from="lane_entry_B" to="lane_exit_C" type="car_aggr5" /><trip id="r_axs_got_aEr____2_car_aggr3.1" depart="9355.91" from="lane_entry_A" to="lane_exit_D" type="car_aggr3" /><trip id="r_tun_kla_A______2_small_truck.0" depart="9417.74" from="lane_entry_B" to="lane_exit_C" type="small_truck" /><trip id="r_got_luz_KS_2_car_aggr4.0" depart="9560.69" from="lane_entry_D" to="lane_exit_C" type="car_aggr4" /><trip id="r_tun_kla_A______2_small_truck.1" depart="9608.75" from="lane_entry_B" to="lane_exit_C" type="small_truck" /><trip id="r_sus_kla_A______2_car_aggr1.0" depart="9824.45" from="lane_entry_B" to="lane_exit_C" type="car_aggr1" /><trip id="r_kla_fur_A______2_car_aggr3.0" depart="10038.75" from="lane_entry_C" to="lane_exit_B" type="car_aggr3" /><trip id="r_axs_got_aEr____2_car_aggr5.1" depart="10096.97" from="lane_entry_A" to="lane_exit_D" type="car_aggr5" /><trip id="r_luz_tun_aAl_eEr_2_motorbike.0" depart="10310.88" from="lane_entry_C" to="lane_exit_B" type="motorbike" /><trip id="r_tun_kla_A______2_car_aggr5.0" depart="10326.44" from="lane_entry_B" to="lane_exit_C" type="car_aggr5" /><trip id="r_kla_tun_A______2_car_aggr3.0" depart="10332.2" from="lane_entry_C" to="lane_exit_B" type="car_aggr3" /><trip id="r_tun_kla_A______2_car_aggr1.0" depart="10371.75" from="lane_entry_B" to="lane_exit_C" type="car_aggr1" /><trip id="r_axs_got_aEr____2_small_truck.0" depart="10458.26" from="lane_entry_A" to="lane_exit_D" type="small_truck" /><trip id="r_tun_kla_A______2_motorbike.0" depart="10490.23" from="lane_entry_B" to="lane_exit_C" type="motorbike" /><trip id="r_tun_kla_A______2_car_aggr4.1" depart="10494.64" from="lane_entry_B" to="lane_exit_C" type="car_aggr4" /><trip id="r_luz_got_aEr_____2_car_aggr2.0" depart="10767.16" from="lane_entry_A" to="lane_exit_D" type="car_aggr2" /><trip id="r_kla_tun_A______2_car_aggr3.1" depart="10873.64" from="lane_entry_C" to="lane_exit_B" type="car_aggr3" /><trip id="r_kla_fur_A______2_car_aggr4.0" depart="11139.73" from="lane_entry_C" to="lane_exit_B" type="car_aggr4" /><trip id="r_luz_got_aEr_____2_car_aggr3.0" depart="11542.41" from="lane_entry_A" to="lane_exit_D" type="car_aggr3" /><trip id="r_tun_kla_A______2_big_truck.0" depart="11606.99" from="lane_entry_B" to="lane_exit_C" type="big_truck" /><trip id="r_luz_tun_aAl_eEr_2_car_aggr3.0" depart="11696.71" from="lane_entry_C" to="lane_exit_B" type="car_aggr3" /><trip id="r_luz_tun_aAl_eEr_2_car_aggr5.1" depart="11721.82" from="lane_entry_C" to="lane_exit_B" type="car_aggr5" /><trip id="r_got_luz_KS_2_car_aggr4.1" depart="11749.15" from="lane_entry_D" to="lane_exit_C" type="car_aggr4" /><trip id="r_got_luz_KS_2_car_aggr5.0" depart="11752.29" from="lane_entry_D" to="lane_exit_C" type="car_aggr5" /><trip id="r_tun_kla_A______2_car_aggr1.1" depart="11992.98" from="lane_entry_B" to="lane_exit_C" type="car_aggr1" /><trip id="r_got_kla_A______3_car_aggr3.0" depart="12438.94" from="lane_entry_B" to="lane_exit_C" type="car_aggr3" /><trip id="r_got_luz_KS_2_car_aggr5.1" depart="12548.87" from="lane_entry_D" to="lane_exit_C" type="car_aggr5" /><trip id="r_got_luz_KS_2_car_aggr5.2" depart="12552.07" from="lane_entry_D" to="lane_exit_C" type="car_aggr5" /><trip id="r_tun_kla_A______3_car_aggr4.0" depart="13183.81" from="lane_entry_B" to="lane_exit_C" type="car_aggr4" /><trip id="r_got_kla_A______3_motorbike.0" depart="13368.75" from="lane_entry_B" to="lane_exit_C" type="motorbike" /><trip id="r_alt_and_1_3_motorbike.0" depart="13705.33" from="lane_entry_C" to="lane_exit_D" type="motorbike" /><trip id="r_alt_and_1_3_car_aggr4.0" depart="13727.22" from="lane_entry_C" to="lane_exit_D" type="car_aggr4" /><trip id="r_tun_kla_A______3_motorbike.0" depart="13789.14" from="lane_entry_B" to="lane_exit_C" type="motorbike" /><trip id="r_got_kla_A______3_car_aggr2.0" depart="14019.55" from="lane_entry_B" to="lane_exit_C" type="car_aggr2" /><trip id="r_tun_kla_A______3_car_aggr1.0" depart="14374.96" from="lane_entry_B" to="lane_exit_C" type="car_aggr1" /><trip id="r_tun_kla_A______3_small_truck.0" depart="14567.89" from="lane_entry_B" to="lane_exit_C" type="small_truck" /><trip id="r_luz_tun_aAl_eEr_3_motorbike.0" depart="14596.46" from="lane_entry_C" to="lane_exit_B" type="motorbike" /><trip id="r_luz_tun_aAl_eEr_3_car_aggr3.0" depart="14600.89" from="lane_entry_C" to="lane_exit_B" type="car_aggr3" /><trip id="r_tun_kla_A______3_car_aggr2.0" depart="14633.46" from="lane_entry_B" to="lane_exit_C" type="car_aggr2" /><trip id="r_tun_kla_A______3_car_aggr4.1" depart="14798.31" from="lane_entry_B" to="lane_exit_C" type="car_aggr4" /><trip id="r_tun_kla_A______3_car_aggr1.1" depart="14928.85" from="lane_entry_B" to="lane_exit_C" type="car_aggr1" /><trip id="r_got_kla_A______3_motorbike.1" depart="15075.67" from="lane_entry_B" to="lane_exit_C" type="motorbike" /><trip id="r_tun_kla_A______3_motorbike.1" depart="15169.48" from="lane_entry_B" to="lane_exit_C" type="motorbike" /><trip id="r_tun_kla_A______3_car_aggr4.2" depart="15680.39" from="lane_entry_B" to="lane_exit_C" type="car_aggr4" /><trip id="r_got_kla_A______3_car_aggr5.0" depart="15695.38" from="lane_entry_B" to="lane_exit_C" type="car_aggr5" /><trip id="r_got_kla_A______3_car_aggr1.0" depart="15734.31" from="lane_entry_B" to="lane_exit_C" type="car_aggr1" /><trip id="r_got_luz_KS_4_car_aggr1.0" depart="16445.38" from="lane_entry_D" to="lane_exit_C" type="car_aggr1" /><trip id="r_tun_kla_A______4_car_aggr3.0" depart="16771.88" from="lane_entry_B" to="lane_exit_C" type="car_aggr3" /><trip id="r_luz_tun_aAl_eEr_4_big_truck.0" depart="17053.66" from="lane_entry_C" to="lane_exit_B" type="big_truck" /><trip id="r_tun_kla_A______4_small_truck.0" depart="17204.72" from="lane_entry_B" to="lane_exit_C" type="small_truck" /><trip id="r_luz_tun_aAl_eEr_4_car_aggr3.0" depart="17221.88" from="lane_entry_C" to="lane_exit_B" type="car_aggr3" /><trip id="r_luz_tun_aAl_eEr_4_car_aggr2.0" depart="17685.84" from="lane_entry_C" to="lane_exit_B" type="car_aggr2" /><trip id="r_luz_tun_aAl_eEr_4_small_truck.0" depart="18589.52" from="lane_entry_C" to="lane_exit_B" type="small_truck" /><trip id="r_axs_got_aEr____5_car_aggr5.0" depart="18801.22" from="lane_entry_A" to="lane_exit_D" type="car_aggr5" /><trip id="r_luz_tun_aAl_eEr_4_car_aggr2.1" depart="18987.07" from="lane_entry_C" to="lane_exit_B" type="car_aggr2" /><trip id="r_axs_got_aEr____5_motorbike.0" depart="19033.52" from="lane_entry_A" to="lane_exit_D" type="motorbike" /><trip id="r_axs_got_aEr____5_car_aggr2.0" depart="19091.41" from="lane_entry_A" to="lane_exit_D" type="car_aggr2" /><trip id="r_axs_got_aEr____5_small_truck.0" depart="19161.46" from="lane_entry_A" to="lane_exit_D" type="small_truck" /><trip id="r_axs_got_aEr____5_car_aggr4.0" depart="19246.77" from="lane_entry_A" to="lane_exit_D" type="car_aggr4" /><trip id="r_got_luz_KS_4_small_truck.0" depart="19286.84" from="lane_entry_D" to="lane_exit_C" type="small_truck" /><trip id="r_got_luz_KS_4_motorbike.0" depart="19290.65" from="lane_entry_D" to="lane_exit_C" type="motorbike" /><trip id="r_got_luz_KS_4_motorbike.1" depart="19294.43" from="lane_entry_D" to="lane_exit_C" type="motorbike" /><trip id="r_oba_luz_KS_Bf__4_car_aggr4.0" depart="19298.28" from="lane_entry_D" to="lane_exit_C" type="car_aggr4" /><trip id="r_luz_got_aEr_____5_motorbike.0" depart="19395.58" from="lane_entry_A" to="lane_exit_D" type="motorbike" /><trip id="r_luz_got_aEr_____5_car_aggr5.0" depart="19399.84" from="lane_entry_A" to="lane_exit_D" type="car_aggr5" /><trip id="r_axs_got_aEr____5_car_aggr5.1" depart="19403.16" from="lane_entry_A" to="lane_exit_D" type="car_aggr5" /><trip id="r_axs_got_aEr____5_car_aggr5.2" depart="19490.78" from="lane_entry_A" to="lane_exit_D" type="car_aggr5" /><trip id="r_kla_tun_A______5_small_truck.0" depart="19597.2" from="lane_entry_C" to="lane_exit_B" type="small_truck" /><trip id="r_axs_got_aEr____5_car_aggr4.1" depart="19695.15" from="lane_entry_A" to="lane_exit_D" type="car_aggr4" /><trip id="r_luz_got_aAl_____5_car_aggr3.0" depart="19777.66" from="lane_entry_C" to="lane_exit_D" type="car_aggr3" /><trip id="r_luz_got_aAl_____5_car_aggr4.0" depart="19805.8" from="lane_entry_C" to="lane_exit_D" type="car_aggr4" /><trip id="r_luz_got_aEr_____5_car_aggr3.0" depart="19897.97" from="lane_entry_A" to="lane_exit_D" type="car_aggr3" /><trip id="r_axs_got_aEr____5_car_aggr5.3" depart="19937.28" from="lane_entry_A" to="lane_exit_D" type="car_aggr5" /><trip id="r_luz_got_aAl_____5_car_aggr2.0" depart="19942.83" from="lane_entry_C" to="lane_exit_D" type="car_aggr2" /><trip id="r_axs_got_aEr____5_car_aggr3.0" depart="19957.89" from="lane_entry_A" to="lane_exit_D" type="car_aggr3" /><trip id="r_luz_got_aEr_____5_car_aggr4.0" depart="19963.93" from="lane_entry_A" to="lane_exit_D" type="car_aggr4" /><trip id="r_luz_got_aAl_____5_car_aggr2.1" depart="20003.79" from="lane_entry_C" to="lane_exit_D" type="car_aggr2" /><trip id="r_luz_got_aEr_____5_car_aggr5.1" depart="20061.32" from="lane_entry_A" to="lane_exit_D" type="car_aggr5" /><trip id="r_axs_got_aEr____5_car_aggr2.1" depart="20077.69" from="lane_entry_A" to="lane_exit_D" type="car_aggr2" /><trip id="r_luz_got_aEr_____5_small_truck.0" depart="20081.88" from="lane_entry_A" to="lane_exit_D" type="small_truck" /><trip id="r_axs_got_aEr____5_car_aggr4.2" depart="20085.56" from="lane_entry_A" to="lane_exit_D" type="car_aggr4" /><trip id="r_luz_got_aAl_____5_car_aggr4.1" depart="20087.47" from="lane_entry_C" to="lane_exit_D" type="car_aggr4" /><trip id="r_sus_kla_A______5_car_aggr1.0" depart="20199.36" from="lane_entry_B" to="lane_exit_C" type="car_aggr1" /><trip id="r_luz_got_aEr_____5_car_aggr4.1" depart="20218.27" from="lane_entry_A" to="lane_exit_D" type="car_aggr4" /><trip id="r_luz_got_aAl_____5_car_aggr4.2" depart="20253.64" from="lane_entry_C" to="lane_exit_D" type="car_aggr4" /><trip id="r_luz_got_aAl_____5_car_aggr4.3" depart="20257.35" from="lane_entry_C" to="lane_exit_D" type="car_aggr4" /><trip id="r_luz_got_aEr_____5_car_aggr1.1" depart="20293.46" from="lane_entry_A" to="lane_exit_D" type="car_aggr1" /><trip id="r_luz_got_aEr_____5_car_aggr1.0" depart="20305.65" from="lane_entry_A" to="lane_exit_D" type="car_aggr1" /><trip id="r_luz_tun_aAl_eEr_5_small_truck.0" depart="20309.18" from="lane_entry_C" to="lane_exit_B" type="small_truck" /><trip id="r_kla_fur_A______5_car_aggr4.0" depart="20326.77" from="lane_entry_C" to="lane_exit_B" type="car_aggr4" /><trip id="r_luz_got_aEr_____5_car_aggr5.2" depart="20337.43" from="lane_entry_A" to="lane_exit_D" type="car_aggr5" /><trip id="r_luz_got_aAl_____5_car_aggr5.0" depart="20351.55" from="lane_entry_C" to="lane_exit_D" type="car_aggr5" /><trip id="r_luz_got_aEr_____5_car_aggr2.0" depart="20359.63" from="lane_entry_A" to="lane_exit_D" type="car_aggr2" /><trip id="r_luz_fur_KS_____5_car_aggr3.0" depart="20368.9" from="lane_entry_C" to="lane_exit_D" type="car_aggr3" /><trip id="r_luz_got_aEr_____5_car_aggr2.1" depart="20399.02" from="lane_entry_A" to="lane_exit_D" type="car_aggr2" /><trip id="r_luz_got_aEr_____5_car_aggr2.2" depart="20426.66" from="lane_entry_A" to="lane_exit_D" type="car_aggr2" /><trip id="r_luz_got_aEr_____5_small_truck.1" depart="20459.62" from="lane_entry_A" to="lane_exit_D" type="small_truck" /><trip id="r_axs_got_aEr____5_car_aggr5.4" depart="20473.01" from="lane_entry_A" to="lane_exit_D" type="car_aggr5" /><trip id="r_luz_got_aAl_____5_big_truck.0" depart="20496.0" from="lane_entry_C" to="lane_exit_D" type="big_truck" /><trip id="r_luz_got_aAl_____5_car_aggr4.4" depart="20500.46" from="lane_entry_C" to="lane_exit_D" type="car_aggr4" /><trip id="r_kla_tun_A______5_motorbike.0" depart="20504.72" from="lane_entry_C" to="lane_exit_B" type="motorbike" /><trip id="r_luz_got_aEr_____5_motorbike.2" depart="20521.68" from="lane_entry_A" to="lane_exit_D" type="motorbike" /><trip id="r_luz_got_aEr_____5_motorbike.1" depart="20526.11" from="lane_entry_A" to="lane_exit_D" type="motorbike" /><trip id="r_luz_got_aEr_____5_small_truck.2" depart="20538.62" from="lane_entry_A" to="lane_exit_D" type="small_truck" /><trip id="r_luz_tun_aAl_eEr_5_motorbike.0" depart="20571.06" from="lane_entry_C" to="lane_exit_B" type="motorbike" /><trip id="r_luz_got_aEr_____5_car_aggr1.2" depart="20609.87" from="lane_entry_A" to="lane_exit_D" type="car_aggr1" /><trip id="r_axs_got_aEr____5_motorbike.1" depart="20630.77" from="lane_entry_A" to="lane_exit_D" type="motorbike" /><trip id="r_luz_tun_aAl_eEr_5_motorbike.1" depart="20649.94" from="lane_entry_C" to="lane_exit_B" type="motorbike" /><trip id="r_luz_got_aEr_____5_car_aggr1.3" depart="20662.61" from="lane_entry_A" to="lane_exit_D" type="car_aggr1" /><trip id="r_luz_got_aEr_____5_car_aggr2.4" depart="20674.69" from="lane_entry_A" to="lane_exit_D" type="car_aggr2" /><trip id="r_luz_got_aEr_____5_car_aggr2.3" depart="20685.69" from="lane_entry_A" to="lane_exit_D" type="car_aggr2" /><trip id="r_luz_got_aEr_____5_car_aggr3.1" depart="20694.62" from="lane_entry_A" to="lane_exit_D" type="car_aggr3" /><trip id="r_luz_got_aEr_____5_motorbike.3" depart="20702.42" from="lane_entry_A" to="lane_exit_D" type="motorbike" /><trip id="r_luz_got_aEr_____5_motorbike.4" depart="20710.4" from="lane_entry_A" to="lane_exit_D" type="motorbike" /><trip id="r_luz_got_aEr_____5_car_aggr2.5" depart="20804.9" from="lane_entry_A" to="lane_exit_D" type="car_aggr2" /><trip id="r_luz_got_aEr_____5_car_aggr3.2" depart="20841.22" from="lane_entry_A" to="lane_exit_D" type="car_aggr3" /><trip id="r_luz_got_aEr_____5_car_aggr4.2" depart="20867.34" from="lane_entry_A" to="lane_exit_D" type="car_aggr4" /><trip id="r_luz_got_aEr_____5_car_aggr1.5" depart="20886.81" from="lane_entry_A" to="lane_exit_D" type="car_aggr1" /><trip id="r_luz_got_aEr_____5_car_aggr5.3" depart="20890.0" from="lane_entry_A" to="lane_exit_D" type="car_aggr5" /><trip id="r_axs_got_aEr____5_car_aggr4.3" depart="20895.26" from="lane_entry_A" to="lane_exit_D" type="car_aggr4" /><trip id="r_luz_got_aEr_____5_car_aggr1.4" depart="20923.06" from="lane_entry_A" to="lane_exit_D" type="car_aggr1" /><trip id="r_luz_tun_aAl_eEr_5_car_aggr1.0" depart="20930.64" from="lane_entry_C" to="lane_exit_B" type="car_aggr1" /><trip id="r_oba_luz_KS_Bf__4_car_aggr1.0" depart="20940.14" from="lane_entry_D" to="lane_exit_C" type="car_aggr1" /><trip id="r_oba_luz_KS_Bf__4_car_aggr2.0" depart="20945.43" from="lane_entry_D" to="lane_exit_C" type="car_aggr2" /><trip id="r_got_luz_KS_5_car_aggr3.0" depart="20949.63" from="lane_entry_D" to="lane_exit_C" type="car_aggr3" /><trip id="r_luz_got_aAl_____5_car_aggr5.1" depart="20999.56" from="lane_entry_C" to="lane_exit_D" type="car_aggr5" /><trip id="r_luz_got_aAl_____5_car_aggr5.2" depart="21003.27" from="lane_entry_C" to="lane_exit_D" type="car_aggr5" /><trip id="r_luz_got_aAl_____5_car_aggr5.3" depart="21006.87" from="lane_entry_C" to="lane_exit_D" type="car_aggr5" /><trip id="r_luz_got_aAl_____5_motorbike.0" depart="21011.37" from="lane_entry_C" to="lane_exit_D" type="motorbike" /><trip id="r_luz_tun_aAl_eEr_5_car_aggr3.0" depart="21016.05" from="lane_entry_C" to="lane_exit_B" type="car_aggr3" /><trip id="r_luz_tun_aAl_eEr_5_car_aggr5.0" depart="21019.8" from="lane_entry_C" to="lane_exit_B" type="car_aggr5" /><trip id="r_got_luz_KS_5_car_aggr3.1" depart="21028.39" from="lane_entry_D" to="lane_exit_C" type="car_aggr3" /><trip id="r_axs_got_aEr____5_car_aggr2.2" depart="21063.01" from="lane_entry_A" to="lane_exit_D" type="car_aggr2" /><trip id="r_luz_got_aAl_____5_car_aggr2.2" depart="21075.76" from="lane_entry_C" to="lane_exit_D" type="car_aggr2" /><trip id="r_axs_got_aEr____5_car_aggr1.0" depart="21087.49" from="lane_entry_A" to="lane_exit_D" type="car_aggr1" /><trip id="r_axs_got_aEr____5_car_aggr1.1" depart="21092.92" from="lane_entry_A" to="lane_exit_D" type="car_aggr1" /><trip id="r_luz_got_aEr_____5_car_aggr2.6" depart="21123.8" from="lane_entry_A" to="lane_exit_D" type="car_aggr2" /><trip id="r_luz_got_aEr_____5_car_aggr5.4" depart="21131.68" from="lane_entry_A" to="lane_exit_D" type="car_aggr5" /><trip id="r_luz_tun_aAl_eEr_5_car_aggr4.0" depart="21162.51" from="lane_entry_C" to="lane_exit_B" type="car_aggr4" /><trip id="r_luz_got_aEr_____5_small_truck.3" depart="21199.23" from="lane_entry_A" to="lane_exit_D" type="small_truck" /><trip id="r_luz_got_aAl_____5_car_aggr5.4" depart="21211.69" from="lane_entry_C" to="lane_exit_D" type="car_aggr5" /><trip id="r_luz_got_aEr_____5_car_aggr4.3" depart="21251.06" from="lane_entry_A" to="lane_exit_D" type="car_aggr4" /><trip id="r_axs_got_aEr____5_car_aggr5.5" depart="21305.18" from="lane_entry_A" to="lane_exit_D" type="car_aggr5" /><trip id="r_axs_got_aEr____5_car_aggr4.4" depart="21310.56" from="lane_entry_A" to="lane_exit_D" type="car_aggr4" /><trip id="r_kla_tun_A______5_car_aggr4.0" depart="21378.81" from="lane_entry_C" to="lane_exit_B" type="car_aggr4" /><trip id="r_tun_kla_A______5_car_aggr3.0" depart="21484.73" from="lane_entry_B" to="lane_exit_C" type="car_aggr3" /><trip id="r_luz_got_aEr_____5_car_aggr3.3" depart="21530.48" from="lane_entry_A" to="lane_exit_D" type="car_aggr3" /><trip id="r_luz_got_aAl_____5_car_aggr1.0" depart="21548.34" from="lane_entry_C" to="lane_exit_D" type="car_aggr1" /><trip id="r_luz_got_aEr_____5_car_aggr2.7" depart="21610.65" from="lane_entry_A" to="lane_exit_D" type="car_aggr2" /><trip id="r_luz_got_aEr_____5_car_aggr3.4" depart="21632.02" from="lane_entry_A" to="lane_exit_D" type="car_aggr3" /><trip id="r_sus_kla_A______5_car_aggr3.0" depart="21638.05" from="lane_entry_B" to="lane_exit_C" type="car_aggr3" /><trip id="r_luz_got_aEr_____5_car_aggr2.8" depart="21638.71" from="lane_entry_A" to="lane_exit_D" type="car_aggr2" /><trip id="r_luz_got_aEr_____5_car_aggr2.9" depart="21675.83" from="lane_entry_A" to="lane_exit_D" type="car_aggr2" /><trip id="r_got_luz_KS_5_car_aggr2.0" depart="21678.12" from="lane_entry_D" to="lane_exit_C" type="car_aggr2" /><trip id="r_axs_got_aEr____5_car_aggr3.1" depart="21695.06" from="lane_entry_A" to="lane_exit_D" type="car_aggr3" /><trip id="r_axs_got_aEr____5_motorbike.2" depart="21705.31" from="lane_entry_A" to="lane_exit_D" type="motorbike" /><trip id="r_luz_got_aEr_____5_car_aggr3.5" depart="21709.88" from="lane_entry_A" to="lane_exit_D" type="car_aggr3" /><trip id="r_luz_got_aEr_____5_motorbike.5" depart="21728.57" from="lane_entry_A" to="lane_exit_D" type="motorbike" /><trip id="r_axs_got_aEr____5_car_aggr2.3" depart="21749.01" from="lane_entry_A" to="lane_exit_D" type="car_aggr2" /><trip id="r_oba_kla_A______5_car_aggr2.0" depart="21765.05" from="lane_entry_B" to="lane_exit_C" type="car_aggr2" /><trip id="r_luz_got_aEr_____5_car_aggr2.10" depart="21797.18" from="lane_entry_A" to="lane_exit_D" type="car_aggr2" /><trip id="r_luz_got_aEr_____5_car_aggr2.11" depart="21836.14" from="lane_entry_A" to="lane_exit_D" type="car_aggr2" /><trip id="r_luz_got_aEr_____5_motorbike.6" depart="21856.1" from="lane_entry_A" to="lane_exit_D" type="motorbike" /><trip id="r_tun_kla_A______5_car_aggr5.0" depart="21869.75" from="lane_entry_B" to="lane_exit_C" type="car_aggr5" /><trip id="r_luz_got_aEr_____5_car_aggr1.6" depart="21876.81" from="lane_entry_A" to="lane_exit_D" type="car_aggr1" /><trip id="r_luz_tun_aAl_eEr_5_car_aggr4.1" depart="21921.51" from="lane_entry_C" to="lane_exit_B" type="car_aggr4" /><trip id="r_luz_tun_aAl_eEr_5_car_aggr5.1" depart="21924.93" from="lane_entry_C" to="lane_exit_B" type="car_aggr5" /><trip id="r_axs_got_aEr____5_car_aggr5.6" depart="21927.41" from="lane_entry_A" to="lane_exit_D" type="car_aggr5" /><trip id="r_luz_tun_aAl_eEr_5_car_aggr2.0" depart="21931.22" from="lane_entry_C" to="lane_exit_B" type="car_aggr2" /><trip id="r_luz_got_aEr_____5_motorbike.7" depart="21931.4" from="lane_entry_A" to="lane_exit_D" type="motorbike" /><trip id="r_tun_kla_A______5_motorbike.0" depart="21932.84" from="lane_entry_B" to="lane_exit_C" type="motorbike" /><trip id="r_luz_got_aEr_____5_car_aggr2.12" depart="21965.61" from="lane_entry_A" to="lane_exit_D" type="car_aggr2" /><trip id="r_axs_got_aEr____5_car_aggr3.2" depart="21980.37" from="lane_entry_A" to="lane_exit_D" type="car_aggr3" /><trip id="r_luz_got_aEr_____5_big_truck.0" depart="21988.29" from="lane_entry_A" to="lane_exit_D" type="big_truck" /><trip id="r_luz_got_aEr_____5_car_aggr2.13" depart="22070.5" from="lane_entry_A" to="lane_exit_D" type="car_aggr2" /><trip id="r_luz_tun_aAl_eEr_5_car_aggr4.2" depart="22075.42" from="lane_entry_C" to="lane_exit_B" type="car_aggr4" /><trip id="r_luz_tun_aAl_eEr_5_car_aggr5.2" depart="22078.63" from="lane_entry_C" to="lane_exit_B" type="car_aggr5" /><trip id="r_luz_tun_aAl_eEr_5_car_aggr3.1" depart="22083.86" from="lane_entry_C" to="lane_exit_B" type="car_aggr3" /><trip id="r_luz_got_aEr_____5_car_aggr1.8" depart="22098.68" from="lane_entry_A" to="lane_exit_D" type="car_aggr1" /><trip id="r_luz_got_aEr_____