<?xml version='1.0' encoding='utf-8'?>
<trips><trip id="r_got_luz_A______0_car_aggr5.0" depart="754.03" from="lane_entry_E" to="lane_exit_A" type="car_aggr5" /><trip id="r_got_axs_A______0_car_aggr2.0" depart="1012.36" from="lane_entry_E" to="lane_exit_A" type="car_aggr2" /><trip id="r_got_axs_A______0_car_aggr5.0" depart="1015.54" from="lane_entry_E" to="lane_exit_A" type="car_aggr5" /><trip id="r_got_luz_A______0_car_aggr3.0" depart="1247.94" from="lane_entry_E" to="lane_exit_A" type="car_aggr3" /><trip id="r_got_axs_A______0_car_aggr5.1" depart="1251.11" from="lane_entry_E" to="lane_exit_A" type="car_aggr5" /><trip id="r_got_axs_A______0_car_aggr1.0" depart="1521.26" from="lane_entry_E" to="lane_exit_A" type="car_aggr1" /><trip id="r_axs_got_A______0_car_aggr4.0" depart="1622.97" from="lane_entry_A" to="lane_exit_E" type="car_aggr4" /><trip id="r_fur_luz_A______0_car_aggr3.0" depart="1680.06" from="lane_entry_E" to="lane_exit_A" type="car_aggr3" /><trip id="r_axs_got_A______0_car_aggr2.0" depart="1715.14" from="lane_entry_A" to="lane_exit_E" type="car_aggr2" /><trip id="r_axs_got_A______0_car_aggr3.0" depart="1726.21" from="lane_entry_A" to="lane_exit_E" type="car_aggr3" /><trip id="r_got_luz_A______0_car_aggr3.1" depart="1732.24" from="lane_entry_E" to="lane_exit_A" type="car_aggr3" /><trip id="r_got_axs_A______0_car_aggr1.1" depart="1779.72" from="lane_entry_E" to="lane_exit_A" type="car_aggr1" /><trip id="r_axs_got_A______0_car_aggr4.2" depart="1850.19" from="lane_entry_A" to="lane_exit_E" type="car_aggr4" /><trip id="r_axs_got_A______0_car_aggr4.1" depart="1882.01" from="lane_entry_A" to="lane_exit_E" type="car_aggr4" /><trip id="r_axs_got_A______0_car_aggr5.0" depart="1885.05" from="lane_entry_A" to="lane_exit_E" type="car_aggr5" /><trip id="r_axs_got_A______0_car_aggr3.1" depart="1894.58" from="lane_entry_A" to="lane_exit_E" type="car_aggr3" /><trip id="r_axs_got_A______0_motorbike.0" depart="1898.07" from="lane_entry_A" to="lane_exit_E" type="motorbike" /><trip id="r_axs_got_A______0_car_aggr3.2" depart="1938.96" from="lane_entry_A" to="lane_exit_E" type="car_aggr3" /><trip id="r_luz_got_A______0_small_truck.0" depart="2038.07" from="lane_entry_A" to="lane_exit_E" type="small_truck" /><trip id="r_axs_got_A______0_car_aggr3.3" depart="2242.83" from="lane_entry_A" to="lane_exit_E" type="car_aggr3" /><trip id="r_luz_got_A______0_motorbike.0" depart="2246.47" from="lane_entry_A" to="lane_exit_E" type="motorbike" /><trip id="r_luz_got_A______0_car_aggr5.0" depart="2249.47" from="lane_entry_A" to="lane_exit_E" type="car_aggr5" /><trip id="r_axs_got_A______0_car_aggr3.4" depart="2254.26" from="lane_entry_A" to="lane_exit_E" type="car_aggr3" /><trip id="r_axs_got_A______0_car_aggr4.3" depart="2257.91" from="lane_entry_A" to="lane_exit_E" type="car_aggr4" /><trip id="r_luz_got_A______0_car_aggr5.1" depart="2261.14" from="lane_entry_A" to="lane_exit_E" type="car_aggr5" /><trip id="r_got_luz_A______0_motorbike.0" depart="2268.05" from="lane_entry_E" to="lane_exit_A" type="motorbike" /><trip id="r_luz_got_A______0_car_aggr4.0" depart="2270.89" from="lane_entry_A" to="lane_exit_E" type="car_aggr4" /><trip id="r_got_luz_A______0_car_aggr4.0" depart="2271.91" from="lane_entry_E" to="lane_exit_A" type="car_aggr4" /><trip id="r_luz_got_A______0_car_aggr4.1" depart="2274.57" from="lane_entry_A" to="lane_exit_E" type="car_aggr4" /><trip id="r_axs_got_A______0_car_aggr5.1" depart="2277.65" from="lane_entry_A" to="lane_exit_E" type="car_aggr5" /><trip id="r_axs_got_A______0_car_aggr2.1" depart="2347.31" from="lane_entry_A" to="lane_exit_E" type="car_aggr2" /><trip id="r_axs_got_A______0_car_aggr2.2" depart="2367.98" from="lane_entry_A" to="lane_exit_E" type="car_aggr2" /><trip id="r_luz_got_A______0_car_aggr5.2" depart="2395.05" from="lane_entry_A" to="lane_exit_E" type="car_aggr5" /><trip id="r_luz_fur_A______0_car_aggr3.0" depart="2399.79" from="lane_entry_A" to="lane_exit_E" type="car_aggr3" /><trip id="r_luz_got_A______0_small_truck.1" depart="2438.48" from="lane_entry_A" to="lane_exit_E" type="small_truck" /><trip id="r_luz_got_A______0_car_aggr2.0" depart="2522.9" from="lane_entry_A" to="lane_exit_E" type="car_aggr2" /><trip id="r_luz_got_A______0_car_aggr1.0" depart="2539.03" from="lane_entry_A" to="lane_exit_E" type="car_aggr1" /><trip id="r_luz_got_A______0_car_aggr4.2" depart="2542.65" from="lane_entry_A" to="lane_exit_E" type="car_aggr4" /><trip id="r_luz_got_A______0_car_aggr2.1" depart="2548.59" from="lane_entry_A" to="lane_exit_E" type="car_aggr2" /><trip id="r_axs_got_A______0_car_aggr5.2" depart="2551.75" from="lane_entry_A" to="lane_exit_E" type="car_aggr5" /><trip id="r_luz_got_A______0_car_aggr5.3" depart="2585.43" from="lane_entry_A" to="lane_exit_E" type="car_aggr5" /><trip id="r_luz_got_A______0_car_aggr3.0" depart="2592.67" from="lane_entry_A" to="lane_exit_E" type="car_aggr3" /><trip id="r_axs_got_A______0_car_aggr2.3" depart="2599.7" from="lane_entry_A" to="lane_exit_E" type="car_aggr2" /><trip id="r_axs_got_A______0_car_aggr1.0" depart="2628.92" from="lane_entry_A" to="lane_exit_E" type="car_aggr1" /><trip id="r_axs_fur_A______0_car_aggr3.0" depart="2679.91" from="lane_entry_A" to="lane_exit_E" type="car_aggr3" /><trip id="r_axs_got_A______0_car_aggr5.3" depart="2683.31" from="lane_entry_A" to="lane_exit_E" type="car_aggr5" /><trip id="r_luz_got_A______0_car_aggr4.3" depart="2687.28" from="lane_entry_A" to="lane_exit_E" type="car_aggr4" /><trip id="r_got_luz_A______0_motorbike.1" depart="2727.23" from="lane_entry_E" to="lane_exit_A" type="motorbike" /><trip id="r_axs_got_A______0_car_aggr4.4" depart="2772.42" from="lane_entry_A" to="lane_exit_E" type="car_aggr4" /><trip id="r_axs_got_A______0_car_aggr1.1" depart="2779.4" from="lane_entry_A" to="lane_exit_E" type="car_aggr1" /><trip id="r_axs_fur_A______0_car_aggr2.0" depart="2849.03" from="lane_entry_A" to="lane_exit_E" type="car_aggr2" /><trip id="r_luz_got_A______0_car_aggr5.4" depart="2852.25" from="lane_entry_A" to="lane_exit_E" type="car_aggr5" /><trip id="r_luz_got_A______0_car_aggr2.2" depart="2873.89" from="lane_entry_A" to="lane_exit_E" type="car_aggr2" /><trip id="r_luz_got_A______0_small_truck.2" depart="2877.4" from="lane_entry_A" to="lane_exit_E" type="small_truck" /><trip id="r_luz_got_A______0_motorbike.1" depart="2881.26" from="lane_entry_A" to="lane_exit_E" type="motorbike" /><trip id="r_axs_got_A______0_car_aggr5.4" depart="2884.39" from="lane_entry_A" to="lane_exit_E" type="car_aggr5" /><trip id="r_luz_got_A______0_car_aggr2.3" depart="2898.86" from="lane_entry_A" to="lane_exit_E" type="car_aggr2" /><trip id="r_axs_got_A______0_car_aggr4.6" depart="2902.43" from="lane_entry_A" to="lane_exit_E" type="car_aggr4" /><trip id="r_luz_got_A______0_car_aggr5.5" depart="2921.03" from="lane_entry_A" to="lane_exit_E" type="car_aggr5" /><trip id="r_axs_got_A______0_car_aggr4.5" depart="2946.85" from="lane_entry_A" to="lane_exit_E" type="car_aggr4" /><trip id="r_got_axs_A______0_car_aggr1.2" depart="2952.31" from="lane_entry_E" to="lane_exit_A" type="car_aggr1" /><trip id="r_axs_got_A______0_small_truck.0" depart="2966.67" from="lane_entry_A" to="lane_exit_E" type="small_truck" /><trip id="r_luz_got_A______0_car_aggr5.6" depart="2969.92" from="lane_entry_A" to="lane_exit_E" type="car_aggr5" /><trip id="r_luz_got_A______0_car_aggr2.4" depart="2980.09" from="lane_entry_A" to="lane_exit_E" type="car_aggr2" /><trip id="r_luz_got_A______0_car_aggr5.7" depart="3006.95" from="lane_entry_A" to="lane_exit_E" type="car_aggr5" /><trip id="r_luz_got_A______0_car_aggr5.8" depart="3010.75" from="lane_entry_A" to="lane_exit_E" type="car_aggr5" /><trip id="r_axs_fur_A______0_car_aggr2.1" depart="3050.96" from="lane_entry_A" to="lane_exit_E" type="car_aggr2" /><trip id="r_axs_got_A______0_car_aggr2.4" depart="3115.8" from="lane_entry_A" to="lane_exit_E" type="car_aggr2" /><trip id="r_luz_got_A______0_car_aggr1.2" depart="3122.1" from="lane_entry_A" to="lane_exit_E" type="car_aggr1" /><trip id="r_axs_got_A______0_car_aggr3.5" depart="3126.4" from="lane_entry_A" to="lane_exit_E" type="car_aggr3" /><trip id="r_luz_got_A______0_car_aggr1.1" depart="3144.76" from="lane_entry_A" to="lane_exit_E" type="car_aggr1" /><trip id="r_axs_got_A______0_car_aggr4.7" depart="3148.61" from="lane_entry_A" to="lane_exit_E" type="car_aggr4" /><trip id="r_luz_got_A______0_car_aggr2.5" depart="3167.5" from="lane_entry_A" to="lane_exit_E" type="car_aggr2" /><trip id="r_axs_got_A______0_car_aggr5.5" depart="3173.3" from="lane_entry_A" to="lane_exit_E" type="car_aggr5" /><trip id="r_axs_got_A______0_car_aggr3.6" depart="3181.99" from="lane_entry_A" to="lane_exit_E" type="car_aggr3" /><trip id="r_axs_got_A______0_small_truck.1" depart="3185.86" from="lane_entry_A" to="lane_exit_E" type="small_truck" /><trip id="r_oba_axs_A______0_car_aggr5.0" depart="3237.05" from="lane_entry_E" to="lane_exit_A" type="car_aggr5" /><trip id="r_luz_got_A______0_motorbike.2" depart="3321.55" from="lane_entry_A" to="lane_exit_E" type="motorbike" /><trip id="r_axs_got_A______0_motorbike.1" depart="3338.71" from="lane_entry_A" to="lane_exit_E" type="motorbike" /><trip id="r_luz_got_A______0_car_aggr3.1" depart="3343.19" from="lane_entry_A" to="lane_exit_E" type="car_aggr3" /><trip id="r_luz_got_A______0_car_aggr2.7" depart="3426.72" from="lane_entry_A" to="lane_exit_E" type="car_aggr2" /><trip id="r_axs_fur_A______0_car_aggr2.2" depart="3431.93" from="lane_entry_A" to="lane_exit_E" type="car_aggr2" /><trip id="r_luz_got_A______0_car_aggr1.3" depart="3479.29" from="lane_entry_A" to="lane_exit_E" type="car_aggr1" /><trip id="r_luz_got_A______0_car_aggr5.9" depart="3482.33" from="lane_entry_A" to="lane_exit_E" type="car_aggr5" /><trip id="r_luz_got_A______0_car_aggr5.10" depart="3496.27" from="lane_entry_A" to="lane_exit_E" type="car_aggr5" /><trip id="r_axs_got_A______0_car_aggr1.2" depart="3513.55" from="lane_entry_A" to="lane_exit_E" type="car_aggr1" /><trip id="r_luz_got_A______0_car_aggr3.2" depart="3553.42" from="lane_entry_A" to="lane_exit_E" type="car_aggr3" /><trip id="r_luz_got_A______0_car_aggr2.8" depart="3559.04" from="lane_entry_A" to="lane_exit_E" type="car_aggr2" /><trip id="r_axs_got_A______0_car_aggr1.3" depart="3601.13" from="lane_entry_A" to="lane_exit_E" type="car_aggr1" /><trip id="r_luz_got_A______0_car_aggr5.11" depart="3604.83" from="lane_entry_A" to="lane_exit_E" type="car_aggr5" /><trip id="r_axs_got_A______0_motorbike.2" depart="3644.29" from="lane_entry_A" to="lane_exit_E" type="motorbike" /><trip id="r_got_luz_A______0_car_aggr4.1" depart="3646.22" from="lane_entry_E" to="lane_exit_A" type="car_aggr4" /><trip id="r_luz_got_A______0_car_aggr4.5" depart="3670.5" from="lane_entry_A" to="lane_exit_E" type="car_aggr4" /><trip id="r_luz_oba_A______0_small_truck.0" depart="3689.1" from="lane_entry_A" to="lane_exit_E" type="small_truck" /><trip id="r_luz_got_A______0_car_aggr3.3" depart="3697.63" from="lane_entry_A" to="lane_exit_E" type="car_aggr3" /><trip id="r_got_luz_A______0_car_aggr5.1" depart="3730.16" from="lane_entry_E" to="lane_exit_A" type="car_aggr5" /><trip id="r_luz_got_A______0_car_aggr2.6" depart="3785.28" from="lane_entry_A" to="lane_exit_E" type="car_aggr2" /><trip id="r_luz_got_A______0_car_aggr5.12" depart="3788.62" from="lane_entry_A" to="lane_exit_E" type="car_aggr5" /><trip id="r_luz_fur_A______0_car_aggr2.0" depart="3817.86" from="lane_entry_A" to="lane_exit_E" type="car_aggr2" /><trip id="r_luz_got_A______0_motorbike.3" depart="3821.72" from="lane_entry_A" to="lane_exit_E" type="motorbike" /><trip id="r_luz_got_A______0_car_aggr3.4" depart="3826.24" from="lane_entry_A" to="lane_exit_E" type="car_aggr3" /><trip id="r_luz_got_A______0_car_aggr1.5" depart="3841.88" from="lane_entry_A" to="lane_exit_E" type="car_aggr1" /><trip id="r_luz_got_A______0_car_aggr1.6" depart="3857.68" from="lane_entry_A" to="lane_exit_E" type="car_aggr1" /><trip id="r_axs_got_A______0_car_aggr5.6" depart="3868.18" from="lane_entry_A" to="lane_exit_E" type="car_aggr5" /><trip id="r_luz_got_A______0_car_aggr1.4" depart="3912.94" from="lane_entry_A" to="lane_exit_E" type="car_aggr1" /><trip id="r_axs_got_A______0_motorbike.3" depart="3916.79" from="lane_entry_A" to="lane_exit_E" type="motorbike" /><trip id="r_luz_got_A______0_motorbike.4" depart="3920.41" from="lane_entry_A" to="lane_exit_E" type="motorbike" /><trip id="r_luz_got_A______0_small_truck.3" depart="3932.63" from="lane_entry_A" to="lane_exit_E" type="small_truck" /><trip id="r_axs_got_A______0_car_aggr1.4" depart="3939.66" from="lane_entry_A" to="lane_exit_E" type="car_aggr1" /><trip id="r_axs_got_A______0_motorbike.4" depart="3950.59" from="lane_entry_A" to="lane_exit_E" type="motorbike" /><trip id="r_luz_fur_A______0_car_aggr2.1" depart="4010.13" from="lane_entry_A" to="lane_exit_E" type="car_aggr2" /><trip id="r_oba_luz_A______0_motorbike.0" depart="4051.36" from="lane_entry_E" to="lane_exit_A" type="motorbike" /><trip id="r_axs_fur_A______0_car_aggr5.0" depart="4139.52" from="lane_entry_A" to="lane_exit_E" type="car_aggr5" /><trip id="r_luz_got_A______0_car_aggr4.4" depart="4245.38" from="lane_entry_A" to="lane_exit_E" type="car_aggr4" /><trip id="r_luz_got_A______0_car_aggr5.13" depart="4248.66" from="lane_entry_A" to="lane_exit_E" type="car_aggr5" /><trip id="r_axs_got_A______0_car_aggr3.7" depart="4262.92" from="lane_entry_A" to="lane_exit_E" type="car_aggr3" /><trip id="r_luz_got_A______0_motorbike.6" depart="4266.81" from="lane_entry_A" to="lane_exit_E" type="motorbike" /><trip id="r_axs_got_A______0_motorbike.5" depart="4270.51" from="lane_entry_A" to="lane_exit_E" type="motorbike" /><trip id="r_axs_got_A______0_small_truck.2" depart="4274.66" from="lane_entry_A" to="lane_exit_E" type="small_truck" /><trip id="r_luz_got_A______0_small_truck.4" depart="4278.19" from="lane_entry_A" to="lane_exit_E" type="small_truck" /><trip id="r_oba_luz_A______0_car_aggr1.0" depart="4282.76" from="lane_entry_E" to="lane_exit_A" type="car_aggr1" /><trip id="r_axs_fur_A______0_car_aggr1.0" depart="4284.61" from="lane_entry_A" to="lane_exit_E" type="car_aggr1" /><trip id="r_luz_got_A______0_small_truck.5" depart="4288.14" from="lane_entry_A" to="lane_exit_E" type="small_truck" /><trip id="r_luz_got_A______0_motorbike.5" depart="4298.93" from="lane_entry_A" to="lane_exit_E" type="motorbike" /><trip id="r_luz_got_A______0_car_aggr4.6" depart="4302.58" from="lane_entry_A" to="lane_exit_E" type="car_aggr4" /><trip id="r_luz_got_A______0_car_aggr4.7" depart="4306.25" from="lane_entry_A" to="lane_exit_E" type="car_aggr4" /><trip id="r_got_axs_A______0_car_aggr2.1" depart="4311.75" from="lane_entry_E" to="lane_exit_A" type="car_aggr2" /><trip id="r_got_kla_A______1_car_aggr3.0" depart="4316.19" from="lane_entry_E" to="lane_exit_A" type="car_aggr3" /><trip id="r_luz_got_A______0_car_aggr1.7" depart="4331.98" from="lane_entry_A" to="lane_exit_E" type="car_aggr1" /><trip id="r_luz_got_A______0_car_aggr1.8" depart="4347.59" from="lane_entry_A" to="lane_exit_E" type="car_aggr1" /><trip id="r_axs_got_A______0_car_aggr1.5" depart="4353.32" from="lane_entry_A" to="lane_exit_E" type="car_aggr1" /><trip id="r_luz_got_A______0_motorbike.7" depart="4384.29" from="lane_entry_A" to="lane_exit_E" type="motorbike" /><trip id="r_luz_got_A______0_car_aggr3.6" depart="4388.77" from="lane_entry_A" to="lane_exit_E" type="car_aggr3" /><trip id="r_luz_got_A______0_car_aggr1.9" depart="4433.11" from="lane_entry_A" to="lane_exit_E" type="car_aggr1" /><trip id="r_luz_got_A______0_car_aggr3.5" depart="4437.26" from="lane_entry_A" to="lane_exit_E" type="car_aggr3" /><trip id="r_luz_got_A______0_car_aggr4.8" depart="4441.0" from="lane_entry_A" to="lane_exit_E" type="car_aggr4" /><trip id="r_axs_got_A______0_car_aggr3.8" depart="4450.52" from="lane_entry_A" to="lane_exit_E" type="car_aggr3" /><trip id="r_luz_got_A______0_car_aggr2.9" depart="4483.49" from="lane_entry_A" to="lane_exit_E" type="car_aggr2" /><trip id="r_axs_fur_A______0_car_aggr1.1" depart="4510.08" from="lane_entry_A" to="lane_exit_E" type="car_aggr1" /><trip id="r_axs_got_A______0_car_aggr2.5" depart="4515.4" from="lane_entry_A" to="lane_exit_E" type="car_aggr2" /><trip id="r_axs_got_A______0_car_aggr2.6" depart="4520.74" from="lane_entry_A" to="lane_exit_E" type="car_aggr2" /><trip id="r_axs_got_A______0_car_aggr3.9" depart="4524.93" from="lane_entry_A" to="lane_exit_E" type="car_aggr3" /><trip id="r_axs_fur_A______0_car_aggr2.3" depart="4561.29" from="lane_entry_A" to="lane_exit_E" type="car_aggr2" /><trip id="r_axs_got_A______0_car_aggr5.7" depart="4564.46" from="lane_entry_A" to="lane_exit_E" type="car_aggr5" /><trip id="r_luz_got_A______0_motorbike.8" depart="4618.02" from="lane_entry_A" to="lane_exit_E" type="motorbike" /><trip id="r_got_luz_A______1_car_aggr5.0" depart="4721.18" from="lane_entry_E" to="lane_exit_A" type="car_aggr5" /><trip id="r_luz_got_A______0_car_aggr4.9" depart="4809.09" from="lane_entry_A" to="lane_exit_E" type="car_aggr4" /><trip id="r_luz_got_A______0_car_aggr5.15" depart="4844.13" from="lane_entry_A" to="lane_exit_E" type="car_aggr5" /><trip id="r_luz_got_A______0_car_aggr5.14" depart="4884.64" from="lane_entry_A" to="lane_exit_E" type="car_aggr5" /><trip id="r_axs_got_A______0_small_truck.3" depart="4889.1" from="lane_entry_A" to="lane_exit_E" type="small_truck" /><trip id="r_luz_got_A______0_car_aggr3.7" depart="4904.18" from="lane_entry_A" to="lane_exit_E" type="car_aggr3" /><trip id="r_luz_fur_A______0_car_aggr3.1" depart="4908.93" from="lane_entry_A" to="lane_exit_E" type="car_aggr3" /><trip id="r_axs_got_A______0_car_aggr5.8" depart="4964.84" from="lane_entry_A" to="lane_exit_E" type="car_aggr5" /><trip id="r_axs_got_A______0_motorbike.6" depart="4968.82" from="lane_entry_A" to="lane_exit_E" type="motorbike" /><trip id="r_luz_got_A______0_small_truck.6" depart="4973.16" from="lane_entry_A" to="lane_exit_E" type="small_truck" /><trip id="r_luz_got_A______0_car_aggr4.10" depart="4976.95" from="lane_entry_A" to="lane_exit_E" type="car_aggr4" /><trip id="r_luz_got_A______0_car_aggr5.16" depart="4980.22" from="lane_entry_A" to="lane_exit_E" type="car_aggr5" /><trip id="r_axs_got_A______0_car_aggr4.8" depart="4984.49" from="lane_entry_A" to="lane_exit_E" type="car_aggr4" /><trip id="r_luz_got_A______0_car_aggr5.17" depart="5000.37" from="lane_entry_A" to="lane_exit_E" type="car_aggr5" /><trip id="r_luz_got_A______0_car_aggr2.10" depart="5028.24" from="lane_entry_A" to="lane_exit_E" type="car_aggr2" /><trip id="r_luz_got_A______0_car_aggr1.10" depart="5041.29" from="lane_entry_A" to="lane_exit_E" type="car_aggr1" /><trip id="r_luz_fur_A______0_car_aggr2.2" depart="5057.12" from="lane_entry_A" to="lane_exit_E" type="car_aggr2" /><trip id="r_axs_got_A______0_car_aggr4.9" depart="5062.45" from="lane_entry_A" to="lane_exit_E" type="car_aggr4" /><trip id="r_axs_got_A______0_small_truck.4" depart="5069.48" from="lane_entry_A" to="lane_exit_E" type="small_truck" /><trip id="r_luz_got_A______0_small_truck.7" depart="5073.02" from="lane_entry_A" to="lane_exit_E" type="small_truck" /><trip id="r_got_luz_KS_1_big_truck.0" depart="5075.06" from="lane_entry_E" to="lane_exit_C" type="big_truck" /><trip id="r_luz_oba_A______0_car_aggr4.0" depart="5092.56" from="lane_entry_A" to="lane_exit_E" type="car_aggr4" /><trip id="r_axs_got_A______0_car_aggr2.7" depart="5160.17" from="lane_entry_A" to="lane_exit_E" type="car_aggr2" /><trip id="r_axs_got_A______0_big_truck.0" depart="5184.18" from="lane_entry_A" to="lane_exit_E" type="big_truck" /><trip id="r_got_luz_KS_1_car_aggr4.0" depart="5191.99" from="lane_entry_E" to="lane_exit_C" type="car_aggr4" /><trip id="r_luz_got_A______0_car_aggr4.11" depart="5193.63" from="lane_entry_A" to="lane_exit_E" type="car_aggr4" /><trip id="r_axs_got_A______0_car_aggr4.10" depart="5285.44" from="lane_entry_A" to="lane_exit_E" type="car_aggr4" /><trip id="r_luz_got_A______0_car_aggr5.18" depart="5296.24" from="lane_entry_A" to="lane_exit_E" type="car_aggr5" /><trip id="r_axs_got_A______0_car_aggr3.10" depart="5301.06" from="lane_entry_A" to="lane_exit_E" type="car_aggr3" /><trip id="r_luz_got_A______0_car_aggr3.8" depart="5305.34" from="lane_entry_A" to="lane_exit_E" type="car_aggr3" /><trip id="r_luz_got_A______0_car_aggr5.19" depart="5308.78" from="lane_entry_A" to="lane_exit_E" type="car_aggr5" /><trip id="r_luz_got_A______0_car_aggr2.11" depart="5324.09" from="lane_entry_A" to="lane_exit_E" type="car_aggr2" /><trip id="r_luz_got_A______0_car_aggr1.11" depart="5330.54" from="lane_entry_A" to="lane_exit_E" type="car_aggr1" /><trip id="r_luz_fur_A______0_car_aggr2.3" depart="5339.39" from="lane_entry_A" to="lane_exit_E" type="car_aggr2" /><trip id="r_luz_got_A______0_car_aggr1.12" depart="5360.97" from="lane_entry_A" to="lane_exit_E" type="car_aggr1" /><trip id="r_axs_got_A______0_small_truck.5" depart="5384.46" from="lane_entry_A" to="lane_exit_E" type="small_truck" /><trip id="r_luz_got_A______0_small_truck.8" depart="5399.0" from="lane_entry_A" to="lane_exit_E" type="small_truck" /><trip id="r_axs_got_A______0_car_aggr4.11" depart="5402.71" from="lane_entry_A" to="lane_exit_E" type="car_aggr4" /><trip id="r_luz_got_A______0_car_aggr1.13" depart="5411.5" from="lane_entry_A" to="lane_exit_E" type="car_aggr1" /><trip id="r_axs_got_A______0_car_aggr1.6" depart="5440.3" from="lane_entry_A" to="lane_exit_E" type="car_aggr1" /><trip id="r_luz_got_A______0_car_aggr1.14" depart="5473.92" from="lane_entry_A" to="lane_exit_E" type="car_aggr1" /><trip id="r_luz_fur_A______0_motorbike.0" depart="5477.66" from="lane_entry_A" to="lane_exit_E" type="motorbike" /><trip id="r_luz_got_A______0_motorbike.9" depart="5492.41" from="lane_entry_A" to="lane_exit_E" type="motorbike" /><trip id="r_luz_got_A______0_car_aggr4.12" depart="5613.59" from="lane_entry_A" to="lane_exit_E" type="car_aggr4" /><trip id="r_luz_fur_A______0_car_aggr1.0" depart="5620.6" from="lane_entry_A" to="lane_exit_E" type="car_aggr1" /><trip id="r_luz_got_A______0_car_aggr5.20" depart="5623.95" from="lane_entry_A" to="lane_exit_E" type="car_aggr5" /><trip id="r_got_luz_KS_1_motorbike.0" depart="5642.6" from="lane_entry_E" to="lane_exit_C" type="motorbike" /><trip id="r_luz_got_A______0_motorbike.10" depart="5667.24" from="lane_entry_A" to="lane_exit_E" type="motorbike" /><trip id="r_axs_got_aAm____1_small_truck.0" depart="5724.25" from="lane_entry_C" to="lane_exit_E" type="small_truck" /><trip id="r_axs_got_aAm____1_small_truck.1" depart="5816.35" from="lane_entry_C" to="lane_exit_E" type="small_truck" /><trip id="r_luz_got_A______0_car_aggr2.12" depart="5829.4" from="lane_entry_A" to="lane_exit_E" type="car_aggr2" /><trip id="r_luz_got_A______0_car_aggr2.13" depart="5834.78" from="lane_entry_A" to="lane_exit_E" type="car_aggr2" /><trip id="r_luz_got_A______0_car_aggr5.21" depart="5858.86" from="lane_entry_A" to="lane_exit_E" type="car_aggr5" /><trip id="r_axs_got_aAm____1_big_truck.0" depart="5908.11" from="lane_entry_C" to="lane_exit_E" type="big_truck" /><trip id="r_axs_got_aAm____1_car_aggr5.0" depart="5911.63" from="lane_entry_C" to="lane_exit_E" type="car_aggr5" /><trip id="r_got_luz_KS_1_car_aggr2.0" depart="5914.8" from="lane_entry_E" to="lane_exit_C" type="car_aggr2" /><trip id="r_axs_got_aWa____1_car_aggr1.0" depart="5923.68" from="lane_entry_C" to="lane_exit_E" type="car_aggr1" /><trip id="r_axs_got_aAm____1_car_aggr3.0" depart="6096.92" from="lane_entry_C" to="lane_exit_E" type="car_aggr3" /><trip id="r_axs_got_aAm____1_car_aggr2.0" depart="6157.83" from="lane_entry_C" to="lane_exit_E" type="car_aggr2" /><trip id="r_axs_got_aAm____1_car_aggr3.1" depart="6161.97" from="lane_entry_C" to="lane_exit_E" type="car_aggr3" /><trip id="r_axs_got_aAm____1_car_aggr4.0" depart="6165.58" from="lane_entry_C" to="lane_exit_E" type="car_aggr4" /><trip id="r_got_luz_KS_1_car_aggr1.0" depart="6195.9" from="lane_entry_E" to="lane_exit_C" type="car_aggr1" /><trip id="r_axs_got_aAm____1_car_aggr1.0" depart="6271.45" from="lane_entry_C" to="lane_exit_E" type="car_aggr1" /><trip id="r_axs_got_aAm____1_car_aggr5.1" depart="6274.52" from="lane_entry_C" to="lane_exit_E" type="car_aggr5" /><trip id="r_axs_got_aAm____1_car_aggr3.2" depart="6280.99" from="lane_entry_C" to="lane_exit_E" type="car_aggr3" /><trip id="r_axs_got_aEr____1_car_aggr4.0" depart="6284.63" from="lane_entry_C" to="lane_exit_E" type="car_aggr4" /><trip id="r_oba_axs_A______1_car_aggr5.0" depart="6331.74" from="lane_entry_E" to="lane_exit_A" type="car_aggr5" /><trip id="r_luz_got_aAm_____1_car_aggr3.0" depart="6557.7" from="lane_entry_C" to="lane_exit_E" type="car_aggr3" /><trip id="r_got_luz_KS_1_car_aggr2.1" depart="6629.26" from="lane_entry_E" to="lane_exit_C" type="car_aggr2" /><trip id="r_luz_got_aWa_____1_car_aggr4.0" depart="6681.15" from="lane_entry_C" to="lane_exit_E" type="car_aggr4" /><trip id="r_luz_got_aAm_____1_car_aggr2.0" depart="6694.21" from="lane_entry_C" to="lane_exit_E" type="car_aggr2" /><trip id="r_luz_got_aAm_____1_car_aggr1.0" depart="7030.64" from="lane_entry_C" to="lane_exit_E" type="car_aggr1" /><trip id="r_luz_got_aAm_____1_car_aggr3.1" depart="7034.99" from="lane_entry_C" to="lane_exit_E" type="car_aggr3" /><trip id="r_luz_got_aAm_____1_car_aggr5.0" depart="7038.18" from="lane_entry_C" to="lane_exit_E" type="car_aggr5" /><trip id="r_luz_got_aAm_____1_car_aggr3.2" depart="7043.01" from="lane_entry_C" to="lane_exit_E" type="car_aggr3" /><trip id="r_luz_got_aAm_____1_car_aggr4.0" depart="7046.75" from="lane_entry_C" to="lane_exit_E" type="car_aggr4" /><trip id="r_kla_fur_KS_____1_car_aggr5.0" depart="7050.0" from="lane_entry_C" to="lane_exit_E" type="car_aggr5" /><trip id="r_luz_got_aAm_____1_car_aggr1.1" depart="7057.33" from="lane_entry_C" to="lane_exit_E" type="car_aggr1" /><trip id="r_axs_got_aAm____1_car_aggr2.1" depart="7080.06" from="lane_entry_C" to="lane_exit_E" type="car_aggr2" /><trip id="r_luz_got_aAm_____1_car_aggr4.1" depart="7083.8" from="lane_entry_C" to="lane_exit_E" type="car_aggr4" /><trip id="r_luz_got_aAm_____1_motorbike.0" depart="7087.57" from="lane_entry_C" to="lane_exit_E" type="motorbike" /><trip id="r_axs_got_aAm____1_small_truck.2" depart="7157.25" from="lane_entry_C" to="lane_exit_E" type="small_truck" /><trip id="r_luz_got_aAm_____1_car_aggr5.1" depart="7160.46" from="lane_entry_C" to="lane_exit_E" type="car_aggr5" /><trip id="r_got_luz_KS_1_small_truck.0" depart="7238.73" from="lane_entry_E" to="lane_exit_C" type="small_truck" /><trip id="r_got_axs_A______1_motorbike.0" depart="7270.6" from="lane_entry_E" to="lane_exit_A" type="motorbike" /><trip id="r_axs_got_aAm____1_car_aggr1.1" depart="7429.38" from="lane_entry_C" to="lane_exit_E" type="car_aggr1" /><trip id="r_luz_got_aAm_____1_car_aggr1.2" depart="7435.15" from="lane_entry_C" to="lane_exit_E" type="car_aggr1" /><trip id="r_axs_got_aAm____1_car_aggr1.2" depart="7467.24" from="lane_entry_C" to="lane_exit_E" type="car_aggr1" /><trip id="r_luz_got_aAm_____1_motorbike.1" depart="7471.07" from="lane_entry_C" to="lane_exit_E" type="motorbike" /><trip id="r_luz_got_aAm_____1_motorbike.2" depart="7474.82" from="lane_entry_C" to="lane_exit_E" type="motorbike" /><trip id="r_luz_fur_KS_____1_car_aggr3.0" depart="7479.25" from="lane_entry_C" to="lane_exit_E" type="car_aggr3" /><trip id="r_luz_fur_KS_____1_car_aggr5.0" depart="7482.46" from="lane_entry_C" to="lane_exit_E" type="car_aggr5" /><trip id="r_luz_fur_KS_____1_small_truck.0" depart="7486.9" from="lane_entry_C" to="lane_exit_E" type="small_truck" /><trip id="r_luz_got_aAm_____1_motorbike.3" depart="7490.65" from="lane_entry_C" to="lane_exit_E" type="motorbike" /><trip id="r_axs_got_aAm____1_car_aggr5.2" depart="7493.63" from="lane_entry_C" to="lane_exit_E" type="car_aggr5" /><trip id="r_luz_got_aAm_____1_car_aggr3.3" depart="7498.51" from="lane_entry_C" to="lane_exit_E" type="car_aggr3" /><trip id="r_luz_got_aAm_____1_car_aggr1.3" depart="7505.25" from="lane_entry_C" to="lane_exit_E" type="car_aggr1" /><trip id="r_kla_fur_KS_____1_car_aggr2.0" depart="7510.6" from="lane_entry_C" to="lane_exit_E" type="car_aggr2" /><trip id="r_luz_got_aAm_____1_car_aggr1.4" depart="7516.93" from="lane_entry_C" to="lane_exit_E" type="car_aggr1" /><trip id="r_kla_fur_KS_____1_car_aggr1.0" depart="7522.7" from="lane_entry_C" to="lane_exit_E" type="car_aggr1" /><trip id="r_luz_got_aAm_____1_car_aggr2.1" depart="7527.98" from="lane_entry_C" to="lane_exit_E" type="car_aggr2" /><trip id="r_axs_got_aAm____1_car_aggr5.3" depart="7531.17" from="lane_entry_C" to="lane_exit_E" type="car_aggr5" /><trip id="r_luz_got_aEr_____1_motorbike.0" depart="7535.09" from="lane_entry_C" to="lane_exit_E" type="motorbike" /><trip id="r_luz_fur_KS_____1_car_aggr1.0" depart="7894.76" from="lane_entry_C" to="lane_exit_E" type="car_aggr1" /><trip id="r_luz_fur_KS_____1_motorbike.0" depart="7898.67" from="lane_entry_C" to="lane_exit_E" type="motorbike" /><trip id="r_alt_and_1_1_motorbike.0" depart="7902.21" from="lane_entry_C" to="lane_exit_E" type="motorbike" /><trip id="r_kla_oba_KS_____1_motorbike.0" depart="7905.86" from="lane_entry_C" to="lane_exit_E" type="motorbike" /><trip id="r_luz_fur_KS_____1_car_aggr5.1" depart="7978.1" from="lane_entry_C" to="lane_exit_E" type="car_aggr5" /><trip id="r_alt_and_1_1_car_aggr5.0" depart="7981.27" from="lane_entry_C" to="lane_exit_E" type="car_aggr5" /><trip id="r_luz_got_aAm_____1_car_aggr2.2" depart="8142.06" from="lane_entry_C" to="lane_exit_E" type="car_aggr2" /><trip id="r_luz_got_aAm_____1_car_aggr2.3" depart="8153.46" from="lane_entry_C" to="lane_exit_E" type="car_aggr2" /><trip id="r_luz_got_aAm_____1_car_aggr5.2" depart="8156.59" from="lane_entry_C" to="lane_exit_E" type="car_aggr5" /><trip id="r_luz_got_aAm_____1_car_aggr5.3" depart="8159.73" from="lane_entry_C" to="lane_exit_E" type="car_aggr5" /><trip id="r_axs_got_aAm____1_car_aggr3.3" depart="8164.49" from="lane_entry_C" to="lane_exit_E" type="car_aggr3" /><trip id="r_luz_got_aAm_____1_car_aggr3.4" depart="8168.66" from="lane_entry_C" to="lane_exit_E" type