<?xml version='1.0' encoding='utf-8'?>
<trips><trip id="r_ams_ers_1_1_car_aggr3.0" depart="4557.3" from="lane_entry_C" to="lane_exit_A" type="car_aggr3" /><trip id="r_axs_got_aAm____1_small_truck.0" depart="4781.42" from="lane_entry_B" to="lane_exit_C" type="small_truck" /><trip id="r_axs_got_aAm____1_small_truck.1" depart="4812.07" from="lane_entry_B" to="lane_exit_C" type="small_truck" /><trip id="r_axs_got_aAm____1_big_truck.0" depart="4883.57" from="lane_entry_B" to="lane_exit_C" type="big_truck" /><trip id="r_axs_got_aAm____1_car_aggr5.0" depart="5010.17" from="lane_entry_B" to="lane_exit_C" type="car_aggr5" /><trip id="r_axs_got_aAm____1_car_aggr3.0" depart="5082.56" from="lane_entry_B" to="lane_exit_C" type="car_aggr3" /><trip id="r_axs_got_aAm____1_car_aggr2.0" depart="5094.69" from="lane_entry_B" to="lane_exit_C" type="car_aggr2" /><trip id="r_axs_got_aEr____1_car_aggr4.0" depart="5133.83" from="lane_entry_A" to="lane_exit_C" type="car_aggr4" /><trip id="r_axs_got_aAm____1_car_aggr3.1" depart="5173.49" from="lane_entry_B" to="lane_exit_C" type="car_aggr3" /><trip id="r_axs_got_aAm____1_car_aggr4.0" depart="5194.36" from="lane_entry_B" to="lane_exit_C" type="car_aggr4" /><trip id="r_ams_ers_1_1_car_aggr2.0" depart="5259.42" from="lane_entry_C" to="lane_exit_A" type="car_aggr2" /><trip id="r_axs_got_aAm____1_car_aggr1.0" depart="5297.76" from="lane_entry_B" to="lane_exit_C" type="car_aggr1" /><trip id="r_axs_got_aAm____1_car_aggr5.1" depart="5301.88" from="lane_entry_B" to="lane_exit_C" type="car_aggr5" /><trip id="r_axs_got_aAm____1_car_aggr3.2" depart="5308.21" from="lane_entry_B" to="lane_exit_C" type="car_aggr3" /><trip id="r_ams_ers_1_1_car_aggr3.1" depart="5455.62" from="lane_entry_C" to="lane_exit_A" type="car_aggr3" /><trip id="r_kla_fur_KS_____1_car_aggr5.0" depart="5690.11" from="lane_entry_A" to="lane_exit_C" type="car_aggr5" /><trip id="r_luz_got_aAm_____1_car_aggr3.0" depart="5703.97" from="lane_entry_B" to="lane_exit_C" type="car_aggr3" /><trip id="r_luz_got_aAm_____1_car_aggr2.0" depart="5710.54" from="lane_entry_B" to="lane_exit_C" type="car_aggr2" /><trip id="r_luz_got_aAm_____1_car_aggr1.0" depart="5724.84" from="lane_entry_B" to="lane_exit_C" type="car_aggr1" /><trip id="r_luz_got_aAm_____1_car_aggr3.1" depart="5729.54" from="lane_entry_B" to="lane_exit_C" type="car_aggr3" /><trip id="r_luz_got_aAm_____1_car_aggr5.0" depart="5793.05" from="lane_entry_B" to="lane_exit_C" type="car_aggr5" /><trip id="r_luz_got_aAm_____1_car_aggr3.2" depart="5823.61" from="lane_entry_B" to="lane_exit_C" type="car_aggr3" /><trip id="r_luz_got_aAm_____1_car_aggr4.0" depart="5872.72" from="lane_entry_B" to="lane_exit_C" type="car_aggr4" /><trip id="r_luz_got_aAm_____1_car_aggr1.1" depart="5945.39" from="lane_entry_B" to="lane_exit_C" type="car_aggr1" /><trip id="r_axs_got_aAm____1_car_aggr2.1" depart="5951.9" from="lane_entry_B" to="lane_exit_C" type="car_aggr2" /><trip id="r_luz_fur_KS_____1_car_aggr3.0" depart="6007.9" from="lane_entry_A" to="lane_exit_C" type="car_aggr3" /><trip id="r_luz_fur_KS_____1_car_aggr5.0" depart="6010.85" from="lane_entry_A" to="lane_exit_C" type="car_aggr5" /><trip id="r_luz_fur_KS_____1_small_truck.0" depart="6015.33" from="lane_entry_A" to="lane_exit_C" type="small_truck" /><trip id="r_luz_got_aAm_____1_car_aggr4.1" depart="6075.22" from="lane_entry_B" to="lane_exit_C" type="car_aggr4" /><trip id="r_kla_fur_KS_____1_car_aggr2.0" depart="6089.05" from="lane_entry_A" to="lane_exit_C" type="car_aggr2" /><trip id="r_kla_fur_KS_____1_car_aggr1.0" depart="6095.26" from="lane_entry_A" to="lane_exit_C" type="car_aggr1" /><trip id="r_luz_got_aAm_____1_motorbike.0" depart="6119.05" from="lane_entry_B" to="lane_exit_C" type="motorbike" /><trip id="r_axs_got_aAm____1_small_truck.2" depart="6129.69" from="lane_entry_B" to="lane_exit_C" type="small_truck" /><trip id="r_luz_got_aAm_____1_car_aggr5.1" depart="6155.84" from="lane_entry_B" to="lane_exit_C" type="car_aggr5" /><trip id="r_axs_got_aAm____1_car_aggr1.1" depart="6211.91" from="lane_entry_B" to="lane_exit_C" type="car_aggr1" /><trip id="r_luz_got_aAm_____1_car_aggr1.2" depart="6225.9" from="lane_entry_B" to="lane_exit_C" type="car_aggr1" /><trip id="r_luz_got_aEr_____1_motorbike.0" depart="6230.9" from="lane_entry_A" to="lane_exit_C" type="motorbike" /><trip id="r_got_luz_KS_1_big_truck.0" depart="6233.98" from="lane_entry_C" to="lane_exit_A" type="big_truck" /><trip id="r_got_luz_KS_1_car_aggr4.0" depart="6238.03" from="lane_entry_C" to="lane_exit_A" type="car_aggr4" /><trip id="r_axs_got_aAm____1_car_aggr1.2" depart="6243.27" from="lane_entry_B" to="lane_exit_C" type="car_aggr1" /><trip id="r_luz_got_aAm_____1_motorbike.1" depart="6248.85" from="lane_entry_B" to="lane_exit_C" type="motorbike" /><trip id="r_luz_got_aAm_____1_motorbike.2" depart="6261.84" from="lane_entry_B" to="lane_exit_C" type="motorbike" /><trip id="r_luz_got_aAm_____1_motorbike.3" depart="6317.64" from="lane_entry_B" to="lane_exit_C" type="motorbike" /><trip id="r_axs_got_aAm____1_car_aggr5.2" depart="6325.2" from="lane_entry_B" to="lane_exit_C" type="car_aggr5" /><trip id="r_luz_got_aAm_____1_car_aggr3.3" depart="6335.45" from="lane_entry_B" to="lane_exit_C" type="car_aggr3" /><trip id="r_luz_fur_KS_____1_car_aggr1.0" depart="6353.58" from="lane_entry_A" to="lane_exit_C" type="car_aggr1" /><trip id="r_luz_got_aAm_____1_car_aggr1.3" depart="6355.01" from="lane_entry_B" to="lane_exit_C" type="car_aggr1" /><trip id="r_luz_fur_KS_____1_motorbike.0" depart="6357.12" from="lane_entry_A" to="lane_exit_C" type="motorbike" /><trip id="r_alt_and_1_1_motorbike.0" depart="6360.67" from="lane_entry_A" to="lane_exit_C" type="motorbike" /><trip id="r_kla_oba_KS_____1_motorbike.0" depart="6364.05" from="lane_entry_A" to="lane_exit_C" type="motorbike" /><trip id="r_luz_got_aAm_____1_car_aggr1.4" depart="6370.4" from="lane_entry_B" to="lane_exit_C" type="car_aggr1" /><trip id="r_luz_got_aAm_____1_car_aggr2.1" depart="6411.42" from="lane_entry_B" to="lane_exit_C" type="car_aggr2" /><trip id="r_axs_got_aAm____1_car_aggr5.3" depart="6431.64" from="lane_entry_B" to="lane_exit_C" type="car_aggr5" /><trip id="r_luz_fur_KS_____1_car_aggr5.1" depart="6610.0" from="lane_entry_A" to="lane_exit_C" type="car_aggr5" /><trip id="r_got_luz_KS_1_motorbike.0" depart="6635.5" from="lane_entry_C" to="lane_exit_A" type="motorbike" /><trip id="r_ams_ers_1_1_car_aggr4.0" depart="6639.38" from="lane_entry_C" to="lane_exit_A" type="car_aggr4" /><trip id="r_alt_and_1_1_car_aggr5.0" depart="6663.72" from="lane_entry_A" to="lane_exit_C" type="car_aggr5" /><trip id="r_got_luz_KS_1_car_aggr2.0" depart="6944.31" from="lane_entry_C" to="lane_exit_A" type="car_aggr2" /><trip id="r_ams_ers_1_1_car_aggr5.0" depart="7041.75" from="lane_entry_C" to="lane_exit_A" type="car_aggr5" /><trip id="r_got_luz_KS_1_car_aggr1.0" depart="7092.52" from="lane_entry_C" to="lane_exit_A" type="car_aggr1" /><trip id="r_luz_got_aAm_____1_car_aggr2.2" depart="7127.82" from="lane_entry_B" to="lane_exit_C" type="car_aggr2" /><trip id="r_luz_got_aEr_____1_car_aggr1.0" depart="7130.94" from="lane_entry_A" to="lane_exit_C" type="car_aggr1" /><trip id="r_luz_got_aAm_____1_car_aggr2.3" depart="7133.86" from="lane_entry_B" to="lane_exit_C" type="car_aggr2" /><trip id="r_luz_got_aAm_____1_car_aggr5.2" depart="7139.79" from="lane_entry_B" to="lane_exit_C" type="car_aggr5" /><trip id="r_luz_fur_KS_____1_motorbike.1" depart="7148.88" from="lane_entry_A" to="lane_exit_C" type="motorbike" /><trip id="r_luz_got_aAm_____1_car_aggr5.3" depart="7160.27" from="lane_entry_B" to="lane_exit_C" type="car_aggr5" /><trip id="r_axs_got_aAm____1_car_aggr3.3" depart="7263.34" from="lane_entry_B" to="lane_exit_C" type="car_aggr3" /><trip id="r_luz_got_aAm_____1_car_aggr3.4" depart="7276.96" from="lane_entry_B" to="lane_exit_C" type="car_aggr3" /><trip id="r_luz_got_aAm_____1_motorbike.4" depart="7281.17" from="lane_entry_B" to="lane_exit_C" type="motorbike" /><trip id="r_axs_got_aAm____1_motorbike.0" depart="7285.23" from="lane_entry_B" to="lane_exit_C" type="motorbike" /><trip id="r_luz_got_aAm_____1_car_aggr4.2" depart="7301.05" from="lane_entry_B" to="lane_exit_C" type="car_aggr4" /><trip id="r_luz_got_aAm_____1_car_aggr2.4" depart="7330.31" from="lane_entry_B" to="lane_exit_C" type="car_aggr2" /><trip id="r_luz_got_aAm_____1_car_aggr5.4" depart="7333.97" from="lane_entry_B" to="lane_exit_C" type="car_aggr5" /><trip id="r_luz_got_aEr_____1_car_aggr5.0" depart="7364.62" from="lane_entry_A" to="lane_exit_C" type="car_aggr5" /><trip id="r_luz_got_aAm_____1_car_aggr3.5" depart="7394.69" from="lane_entry_B" to="lane_exit_C" type="car_aggr3" /><trip id="r_luz_got_aAm_____1_car_aggr2.5" depart="7415.35" from="lane_entry_B" to="lane_exit_C" type="car_aggr2" /><trip id="r_axs_got_aAm____1_car_aggr3.4" depart="7420.25" from="lane_entry_B" to="lane_exit_C" type="car_aggr3" /><trip id="r_luz_got_aAm_____1_big_truck.0" depart="7442.69" from="lane_entry_B" to="lane_exit_C" type="big_truck" /><trip id="r_axs_got_aAm____1_car_aggr5.4" depart="7458.9" from="lane_entry_B" to="lane_exit_C" type="car_aggr5" /><trip id="r_luz_got_aAm_____1_car_aggr5.5" depart="7462.37" from="lane_entry_B" to="lane_exit_C" type="car_aggr5" /><trip id="r_axs_got_aAm____1_car_aggr5.5" depart="7466.18" from="lane_entry_B" to="lane_exit_C" type="car_aggr5" /><trip id="r_luz_fur_KS_____1_small_truck.1" depart="7467.08" from="lane_entry_A" to="lane_exit_C" type="small_truck" /><trip id="r_luz_fur_KS_____1_car_aggr5.2" depart="7470.13" from="lane_entry_A" to="lane_exit_C" type="car_aggr5" /><trip id="r_got_luz_KS_1_car_aggr2.1" depart="7489.85" from="lane_entry_C" to="lane_exit_A" type="car_aggr2" /><trip id="r_axs_got_aAm____1_motorbike.1" depart="7491.38" from="lane_entry_B" to="lane_exit_C" type="motorbike" /><trip id="r_luz_got_aAm_____1_car_aggr2.6" depart="7516.8" from="lane_entry_B" to="lane_exit_C" type="car_aggr2" /><trip id="r_ers_ams_1_2_car_aggr1.0" depart="7518.12" from="lane_entry_A" to="lane_exit_C" type="car_aggr1" /><trip id="r_axs_got_aAm____1_car_aggr2.2" depart="7525.88" from="lane_entry_B" to="lane_exit_C" type="car_aggr2" /><trip id="r_axs_got_aAm____1_car_aggr5.6" depart="7529.24" from="lane_entry_B" to="lane_exit_C" type="car_aggr5" /><trip id="r_luz_got_aAm_____1_small_truck.0" depart="7572.54" from="lane_entry_B" to="lane_exit_C" type="small_truck" /><trip id="r_luz_got_aAm_____1_car_aggr5.6" depart="7623.46" from="lane_entry_B" to="lane_exit_C" type="car_aggr5" /><trip id="r_luz_got_aAm_____1_car_aggr3.6" depart="7649.27" from="lane_entry_B" to="lane_exit_C" type="car_aggr3" /><trip id="r_luz_got_aAm_____1_car_aggr5.7" depart="7726.98" from="lane_entry_B" to="lane_exit_C" type="car_aggr5" /><trip id="r_luz_got_aAm_____1_car_aggr5.8" depart="7745.52" from="lane_entry_B" to="lane_exit_C" type="car_aggr5" /><trip id="r_alt_and_1_1_car_aggr1.0" depart="7757.09" from="lane_entry_A" to="lane_exit_C" type="car_aggr1" /><trip id="r_axs_got_aEr____1_car_aggr2.0" depart="7785.85" from="lane_entry_A" to="lane_exit_C" type="car_aggr2" /><trip id="r_axs_got_aAm____1_car_aggr1.3" depart="7803.35" from="lane_entry_B" to="lane_exit_C" type="car_aggr1" /><trip id="r_luz_got_aAm_____1_car_aggr5.9" depart="7817.96" from="lane_entry_B" to="lane_exit_C" type="car_aggr5" /><trip id="r_axs_got_aAm____1_car_aggr4.1" depart="7890.95" from="lane_entry_B" to="lane_exit_C" type="car_aggr4" /><trip id="r_luz_got_aAm_____1_car_aggr4.3" depart="7895.78" from="lane_entry_B" to="lane_exit_C" type="car_aggr4" /><trip id="r_axs_got_aAm____1_car_aggr2.3" depart="7903.16" from="lane_entry_B" to="lane_exit_C" type="car_aggr2" /><trip id="r_luz_got_aAm_____1_car_aggr3.7" depart="7937.05" from="lane_entry_B" to="lane_exit_C" type="car_aggr3" /><trip id="r_ers_ams_1_2_motorbike.0" depart="7938.5" from="lane_entry_A" to="lane_exit_C" type="motorbike" /><trip id="r_axs_got_aEr____1_car_aggr4.1" depart="7941.67" from="lane_entry_A" to="lane_exit_C" type="car_aggr4" /><trip id="r_axs_got_aAm____1_car_aggr3.5" depart="7962.03" from="lane_entry_B" to="lane_exit_C" type="car_aggr3" /><trip id="r_axs_got_aAm____1_car_aggr5.7" depart="7965.53" from="lane_entry_B" to="lane_exit_C" type="car_aggr5" /><trip id="r_luz_got_aAm_____1_car_aggr2.7" depart="7992.36" from="lane_entry_B" to="lane_exit_C" type="car_aggr2" /><trip id="r_luz_got_aAm_____1_small_truck.1" depart="8022.13" from="lane_entry_B" to="lane_exit_C" type="small_truck" /><trip id="r_axs_got_aAm____1_small_truck.3" depart="8054.13" from="lane_entry_B" to="lane_exit_C" type="small_truck" /><trip id="r_axs_got_aAm____1_motorbike.2" depart="8058.79" from="lane_entry_B" to="lane_exit_C" type="motorbike" /><trip id="r_luz_fur_KS_____1_car_aggr2.0" depart="8063.62" from="lane_entry_A" to="lane_exit_C" type="car_aggr2" /><trip id="r_luz_got_aAm_____1_small_truck.2" depart="8064.89" from="lane_entry_B" to="lane_exit_C" type="small_truck" /><trip id="r_axs_got_aAm____1_small_truck.4" depart="8074.33" from="lane_entry_B" to="lane_exit_C" type="small_truck" /><trip id="r_got_luz_KS_1_small_truck.0" depart="8175.34" from="lane_entry_C" to="lane_exit_A" type="small_truck" /><trip id="r_ers_ams_1_2_car_aggr1.1" depart="8220.06" from="lane_entry_A" to="lane_exit_C" type="car_aggr1" /><trip id="r_axs_got_aAm____1_small_truck.5" depart="8225.74" from="lane_entry_B" to="lane_exit_C" type="small_truck" /><trip id="r_ers_ams_1_2_car_aggr2.0" depart="8252.09" from="lane_entry_A" to="lane_exit_C" type="car_aggr2" /><trip id="r_axs_got_aAm____2_car_aggr2.0" depart="8255.26" from="lane_entry_B" to="lane_exit_C" type="car_aggr2" /><trip id="r_axs_got_aAm____2_motorbike.0" depart="8311.49" from="lane_entry_B" to="lane_exit_C" type="motorbike" /><trip id="r_axs_got_aAm____1_car_aggr2.4" depart="8325.66" from="lane_entry_B" to="lane_exit_C" type="car_aggr2" /><trip id="r_axs_got_aAm____2_car_aggr2.1" depart="8331.75" from="lane_entry_B" to="lane_exit_C" type="car_aggr2" /><trip id="r_luz_fur_KS_____1_motorbike.2" depart="8334.04" from="lane_entry_A" to="lane_exit_C" type="motorbike" /><trip id="r_ers_ams_1_2_car_aggr5.0" depart="8400.49" from="lane_entry_A" to="lane_exit_C" type="car_aggr5" /><trip id="r_axs_got_aAm____2_car_aggr3.0" depart="8545.29" from="lane_entry_B" to="lane_exit_C" type="car_aggr3" /><trip id="r_luz_got_aAm_____1_small_truck.3" depart="8551.33" from="lane_entry_B" to="lane_exit_C" type="small_truck" /><trip id="r_luz_got_aAm_____1_motorbike.5" depart="8555.4" from="lane_entry_B" to="lane_exit_C" type="motorbike" /><trip id="r_luz_got_aAm_____1_car_aggr5.10" depart="8558.69" from="lane_entry_B" to="lane_exit_C" type="car_aggr5" /><trip id="r_ers_ams_1_2_car_aggr2.1" depart="8568.31" from="lane_entry_A" to="lane_exit_C" type="car_aggr2" /><trip id="r_axs_got_aAm____2_car_aggr3.1" depart="8577.83" from="lane_entry_B" to="lane_exit_C" type="car_aggr3" /><trip id="r_luz_got_aAm_____1_car_aggr2.8" depart="8584.79" from="lane_entry_B" to="lane_exit_C" type="car_aggr2" /><trip id="r_axs_got_aAm____2_car_aggr5.0" depart="8588.18" from="lane_entry_B" to="lane_exit_C" type="car_aggr5" /><trip id="r_luz_got_aAm_____1_car_aggr1.5" depart="8597.55" from="lane_entry_B" to="lane_exit_C" type="car_aggr1" /><trip id="r_luz_got_aAm_____1_car_aggr1.6" depart="8604.92" from="lane_entry_B" to="lane_exit_C" type="car_aggr1" /><trip id="r_ers_ams_1_2_car_aggr4.0" depart="8647.73" from="lane_entry_A" to="lane_exit_C" type="car_aggr4" /><trip id="r_luz_fur_KS_____1_car_aggr5.3" depart="8650.43" from="lane_entry_A" to="lane_exit_C" type="car_aggr5" /><trip id="r_axs_got_aAm____2_car_aggr5.1" depart="8659.06" from="lane_entry_B" to="lane_exit_C" type="car_aggr5" /><trip id="r_luz_got_aAm_____1_car_aggr5.11" depart="8679.28" from="lane_entry_B" to="lane_exit_C" type="car_aggr5" /><trip id="r_luz_got_aAm_____1_small_truck.4" depart="8715.52" from="lane_entry_B" to="lane_exit_C" type="small_truck" /><trip id="r_luz_got_aAm_____1_car_aggr3.8" depart="8720.46" from="lane_entry_B" to="lane_exit_C" type="car_aggr3" /><trip id="r_luz_got_aAm_____1_car_aggr3.11" depart="8725.53" from="lane_entry_B" to="lane_exit_C" type="car_aggr3" /><trip id="r_ers_ams_1_2_car_aggr5.1" depart="8740.63" from="lane_entry_A" to="lane_exit_C" type="car_aggr5" /><trip id="r_luz_got_aAm_____1_car_aggr3.9" depart="8745.45" from="lane_entry_B" to="lane_exit_C" type="car_aggr3" /><trip id="r_luz_got_aAm_____1_car_aggr4.4" depart="8749.52" from="lane_entry_B" to="lane_exit_C" type="car_aggr4" /><trip id="r_luz_got_aAm_____1_car_aggr3.10" depart="8761.27" from="lane_entry_B" to="lane_exit_C" type="car_aggr3" /><trip id="r_luz_got_aAm_____1_car_aggr4.5" depart="8774.25" from="lane_entry_B" to="lane_exit_C" type="car_aggr4" /><trip id="r_luz_got_aAm_____1_car_aggr1.7" depart="8797.92" from="lane_entry_B" to="lane_exit_C" type="car_aggr1" /><trip id="r_axs_got_aAm____2_car_aggr5.2" depart="8871.28" from="lane_entry_B" to="lane_exit_C" type="car_aggr5" /><trip id="r_luz_got_aAm_____1_car_aggr2.9" depart="8878.25" from="lane_entry_B" to="lane_exit_C" type="car_aggr2" /><trip id="r_ers_ams_1_2_car_aggr2.2" depart="8955.51" from="lane_entry_A" to="lane_exit_C" type="car_aggr2" /><trip id="r_luz_got_aAm_____2_car_aggr4.0" depart="9000.02" from="lane_entry_B" to="lane_exit_C" type="car_aggr4" /><trip id="r_axs_got_aAm____2_motorbike.1" depart="9023.6" from="lane_entry_B" to="lane_exit_C" type="motorbike" /><trip id="r_luz_got_aAm_____2_car_aggr3.0" depart="9040.57" from="lane_entry_B" to="lane_exit_C" type="car_aggr3" /><trip id="r_luz_got_aAm_____2_car_aggr3.1" depart="9082.01" from="lane_entry_B" to="lane_exit_C" type="car_aggr3" /><trip id="r_ers_ams_1_2_car_aggr5.2" depart="9137.36" from="lane_entry_A" to="lane_exit_C" type="car_aggr5" /><trip id="r_axs_got_aAm____2_car_aggr5.3" depart="9144.4" from="lane_entry_B" to="lane_exit_C" type="car_aggr5" /><trip id="r_luz_got_aAm_____2_car_aggr5.0" depart="9147.7" from="lane_entry_B" to="lane_exit_C" type="car_aggr5" /><trip id="r_axs_got_aAm____2_car_aggr4.0" depart="9161.96" from="lane_entry_B" to="lane_exit_C" type="car_aggr4" /><trip id="r_axs_got_aEr____2_car_aggr5.0" depart="9165.1" from="lane_entry_A" to="lane_exit_C" type="car_aggr5" /><trip id="r_got_luz_KS_2_car_aggr4.0" depart="9184.76" from="lane_entry_C" to="lane_exit_A" type="car_aggr4" /><trip id="r_luz_got_aAm_____2_car_aggr3.2" depart="9213.36" from="lane_entry_B" to="lane_exit_C" type="car_aggr3" /><trip id="r_axs_got_aAm____2_car_aggr1.0" depart="9223.62" from="lane_entry_B" to="lane_exit_C" type="car_aggr1" /><trip id="r_axs_got_aAm____2_car_aggr3.2" depart="9236.69" from="lane_entry_B" to="lane_exit_C" type="car_aggr3" /><trip id="r_ers_ams_1_2_motorbike.1" depart="9241.08" from="lane_entry_A" to="lane_exit_C" type="motorbike" /><trip id="r_luz_got_aAm_____2_car_aggr5.1" depart="9265.46" from="lane_entry_B" to="lane_exit_C" type="car_aggr5" /><trip id="r_ers_ams_1_2_car_aggr4.1" depart="9289.96" from="lane_entry_A" to="lane_exit_C" type="car_aggr4" /><trip id="r_axs_got_aEr____2_car_aggr3.0" depart="9311.1" from="lane_entry_A" to="lane_exit_C" type="car_aggr3" /><trip id="r_luz_got_aAm_____2_small_truck.0" depart="9353.82" from="lane_entry_B" to="lane_exit_C" type="small_truck" /><trip id="r_axs_got_aAm____2_small_truck.0" depart="9374.46" from="lane_entry_B" to="lane_exit_C" type="small_truck" /><trip id="r_luz_got_aAm_____2_car_aggr5.2" depart="9378.01" from="lane_entry_B" to="lane_exit_C" type="car_aggr5" /><trip id="r_axs_got_aAm____2_car_aggr5.4" depart="9385.07" from="lane_entry_B" to="lane_exit_C" type="car_aggr5" /><trip id="r_axs_got_aAm____2_small_truck.1" depart="9449.77" from="lane_entry_B" to="lane_exit_C" type="small_truck" /><trip id="r_axs_got_aAm____2_car_aggr3.3" depart="9473.84" from="lane_entry_B" to="lane_exit_C" type="car_aggr3" /><trip id="r_ers_ams_1_2_car_aggr4.2" depart="9476.41" from="lane_entry_A" to="lane_exit_C" type="car_aggr4" /><trip id="r_ers_ams_1_2_car_aggr4.3" depart="9531.62" from="lane_entry_A" to="lane_exit_C" type="car_aggr4" /><trip id="r_axs_got_aAm____2_car_aggr5.5" depart="9569.25" from="lane_entry_B" to="lane_exit_C" type="car_aggr5" /><trip id="r_luz_got_aAm_____2_car_aggr2.0" depart="9654.2" from="lane_entry_B" to="lane_exit_C" type="car_aggr2" /><trip id="r_axs_got_aEr____2_car_aggr3.1" depart="9674.12" from="lane_entry_A" to="lane_exit_C" type="car_aggr3" /><trip id="r_axs_got_aAm____2_car_aggr2.2" depart="9684.69" from="lane_entry_B" to="lane_exit_C" type="car_aggr2" /><trip id="r_ers_ams_1_2_car_aggr5.3" depart="9758.53" from="lane_entry_A" to="lane_exit_C" type="car_aggr5" /><trip id="r_luz_got_aAm_____2_car_aggr5.3" depart="9788.49" from="lane_entry_B" to="lane_exit_C" type="car_aggr5" /><trip id="r_luz_got_aAm_____2_small_truck.1" depart="9816.63" from="lane_entry_B" to="lane_exit_C" type="small_truck" /><trip id="r_axs_got_aAm____2_car_aggr2.3" depart="9864.68" from="lane_entry_B" to="lane_exit_C" type="car_aggr2" /><trip id="r_luz_got_aAm_____2_car_aggr1.0" depart="10138.36" from="lane_entry_B" to="lane_exit_C" type="car_aggr1" /><trip id="r_axs_got_aAm____2_car_aggr4.1" depart="10154.51" from="lane_entry_B" to="lane_exit_C" type="car_aggr4" /><trip id="r_axs_got_aAm____2_motorbike.2" depart="10178.34" from="lane_entry_B" to="lane_exit_C" type="motorbike" /><trip id="r_ers_ams_1_2_car_aggr3.0" depart="10312.66" from="lane_entry_A" to="lane_exit_C" type="car_aggr3" /><trip id="r_axs_got_aAm____2_car_aggr4.2" depart="10426.66" from="lane_entry_B" to="lane_exit_C" type="car_aggr4" /><trip id="r_axs_got_aEr____2_car_aggr5.1" depart="10434.67" from="lane_entry_A" to="lane_exit_C" type="car_aggr5" /><trip id="r_ers_ams_1_2_car_aggr3.1" depart="10493.48" from="lane_entry_A" to="lane_exit_C" type="car_aggr3" /><trip id="r_luz_got_aAm_____2_car_aggr5.4" depart="10551.02" from="lane_entry_B" to="lane_exit_C" type="car_aggr5" /><trip id="r_axs_got_aAm____2_motorbike.3" depart="10566.42" from="lane_entry_B" to="lane_exit_C" type="motorbike" /><trip id="r_axs_got_aAm____2_car_aggr2.4" depart="10577.37" from="lane_entry_B" to="lane_exit_C" type="car_aggr2" /><trip id="r_axs_got_aAm____2_car_aggr1.1" depart="10593.59" from="lane_entry_B" to="lane_exit_C" type="car_aggr1" /><trip id="r_axs_got_aAm____2_car_aggr3.4" depart="10761.49" from="lane_entry_B" to="lane_exit_C" type="car_aggr3" /><trip id="r_axs_got_aEr____2_small_truck.0" depart="10827.55" from="lane_entry_A" to="lane_exit_C" type="small_truck" /><trip id="r_axs_got_aAm____2_car_aggr4.3" depart="10839.84" from="lane_entry_B" to="lane_exit_C" type="car_aggr4" /><trip id="r_axs_got_aAm____2_motorbike.4" depart="10878.37" from="lane_entry_B" to="lane_exit_C" type="motorbike" /><trip id="r_luz_got_aAm_____2_motorbike.0" depart="10906.15" from="lane_entry_B" to="lane_exit_C" type="motorbike" /><trip id="r_luz_got_aAm_____2_car_aggr1.1" depart="10923.69" from="lane_entry_B" to="lane_exit_C" type="car_aggr1" /><trip id="r_ams_ers_1_3_motorbike.0" depart="10935.92" from="lane_entry_C" to="lane_exit_A" type="motorbike" /><trip id="r_luz_got_aAm_____2_car_aggr3.3" depart="10950.68" from="lane_entry_B" to="lane_exit_C" type="car_aggr3" /><trip id="r_axs_got_aAm____2_car_aggr1.2" depart="10988.93" from="lane_entry_B" to="lane_exit_C" type="car_aggr1" /><trip id="r_luz_got_aAm_____2_car_aggr4.1" depart="11010.59" from="lane_entry_B" to="lane_exit_C" type="car_aggr4" /><trip id="r_luz_got_aAm_____2_car_aggr5.5" depart="11040.01" from="lane_entry_B" to="lane_exit_C" type="car_aggr5" /><trip id="r_luz_got_aAm_____2_motorbike.1" depart="11082.76" from="lane_entry_B" to="lane_exit_C" type="motorbike" /><trip id="r_luz_got_aEr_____2_car_aggr2.0" depart="11178.07" from="lane_entry_A" to="lane_exit_C" type="car_aggr2" /><trip id="r_got_luz_KS_2_car_aggr4.1" depart="11218.87" from="lane_entry_C" to="lane_exit_A" type="car_aggr4" /><trip id="r_got_luz_KS_2_car_aggr5.0" depart="11222.06" from="lane_entry_C" to="lane_exit_A" type="car_aggr5" /><trip id="r_axs_got_aAm____2_small_truck.2" depart="11246.0" from="lane_entry_B" to="lane_exit_C" type="small_truck" /><trip id="r_ers_ams_1_3_car_aggr5.0" depart="11255.16" from="lane_entry_A" to="lane_exit_C" type="car_aggr5" /><trip id="r_luz_got_aAm_____2_small_truck.2" depart="11319.72" from="lane_entry_B" to="lane_exit_C" type="small_truck" /><trip id="r_luz_got_aAm_____2_motorbike.2" depart="11344.04" from="lane_entry_B" to="lane_exit_C" type="motorbike" /><trip id="r_ams_ers_1_3_car_aggr3.0" depart="11367.94" from="lane_entry_C" to="lane_exit_A" type="car_aggr3" /><trip id="r_axs_got_aAm____2_car_aggr3.5" depart="11390.77" from="lane_entry_B" to="lane_exit_C" type="car_aggr3" /><trip id="r_ers_ams_1_3_small_truck.0" depart="11396.79" from="lane_entry_A" to="lane_exit_C" type="small_truck" /><trip id="r_luz_got_aAm_____2_car_aggr4.2" depart="11473.58" from="lane_entry_B" to="lane_exit_C" type="car_aggr4" /><trip id="r_axs_got_aAm____2_car_aggr2.5" depart="11480.1" from="lane_entry_B" to="lane_exit_C" type="car_aggr2" /><trip id="r_axs_got_aAm____2_car_aggr1.3" depart="11487.62" from="lane_entry_B" to="lane_exit_C" type="car_aggr1" /><trip id="r_axs_got_aAm____2_car_aggr2.6" depart="11579.13" from="lane_entry_B" to="lane_exit_C" type="car_aggr2" /><trip id="r_axs_got_aAm____2_car_aggr2.7" depart="11586.73" from="lane_entry_B" to="lane_exit_C" type="car_aggr2" /><trip id="r_luz_got_aAm_____2_car_aggr2.1" depart="11645.25" from="lane_entry_B" to="lane_exit_C" type="car_aggr2" /><trip id="r_luz_got_aAm_____2_car_aggr1.2" depart="11690.18" from="lane_entry_B" to="lane_exit_C" type="car_aggr1" /><trip id="r_axs_got_aAm____2_car_aggr2.8" depart="11719.41" from="lane_entry_B" to="lane_exit_C" type="car_aggr2" /><trip id="r_axs_got_aAm____2_motorbike.5" depart="11938.73" from="lane_entry_B" to="lane_exit_C" type="motorbike" /><trip id="r_luz_got_aEr_____2_car_aggr3.0" depart="11944.76" from="lane_entry_A" to="lane_exit_C" type="car_aggr3" /><trip id="r_axs_got_aAm____2_car_aggr1.4" depart="11949.85" from="lane_entry_B" to="lane_exit_C" type="car_aggr1" /><trip id="r_ers_ams_1_3_car_aggr1.0" depart="11950.73" from="lane_entry_A" to="lane_exit_C" type="car_aggr1" /><trip id="r_ams_ers_1_3_car_aggr1.0" depart="11968.36" from="lane_entry_C" to="lane_exit_A" type="car_aggr1" /><trip id="r_got_luz_KS_2_car_aggr5.1" depart="11980.34" from="lane_entry_C" to="lane_exit_A" type="car_aggr5" /><trip id="r_got_luz_KS_2_car_aggr5.2" depart="11983.66" from="lane_entry_C" to="lane_exit_A" type="car_aggr5" /><trip id="r_axs_got_aAm____2_car_aggr3.6" depart="12005.23" from="lane_entry_B" to="lane_exit_C" type="car_aggr3" /><trip id="r_luz_got_aAm_____2_motorbike.3" depart="12033.45" from="lane_entry_B" to="lane_exit_C" type="motorbike" /><trip id="r_luz_got_aAm_____2_small_truck.3" depart="12075.42" from="lane_entry_B" to="lane_exit_C" type="small_truck" /><trip id="r_luz_got_aAm_____2_car_aggr3.4" depart="12089.25" from="lane_entry_B" to="lane_exit_C" type="car_aggr3" /><trip id="r_axs_got_aAm____3_car_aggr2.0" depart="12168.71" from="lane_entry_B" to="lane_exit_C" type="car_aggr2" /><trip id="r_luz_got_aAm_____2_car_aggr1.3" depart="12176.62" from="lane_entry_B" to="lane_exit_C" type="car_aggr1" /><trip id="r_luz_got_aAm_____2_car_aggr2.2" depart="12219.53" from="lane_entry_B" to="lane_exit_C" type="car_aggr2" /><trip id="r_axs_got_aAm____3_car_aggr2.1" depart="12247.37" from="lane_entry_B" to="lane_exit_C" type="car_aggr2" /><trip id="r_luz_got_aAm_____2_car_aggr1.4" depart="12300.52" from="lane_entry_B" to="lane_exit_C" type="car_aggr1" /><trip id="r_luz_got_aAm_____3_car_aggr2.0" depart="12332.26" from="lane_entry_B" to="lane_exit_C" type="car_aggr2" /><trip id="r_luz_got_aAm_____3_motorbike.0" depart="12408.2" from="lane_entry_B" to="lane_exit_C" type="motorbike" /><trip id="r_luz_got_aAm_____3_car_aggr3.0" depart="12439.69" from="lane_entry_B" to="lane_exit_C" type="car_aggr3" /><trip id="r_luz_got_aAm_____3_small_truck.0" depart="12464.39" from="lane_entry_B" to="lane_exit_C" type="small_truck" /><trip id="r_axs_got_aAm____3_car_aggr1.0" depart="12473.84" from="lane_entry_B" to="lane_exit_C" type="car_aggr1" /><trip id="r_luz_got_aAm_____3_car_aggr4.0" depart="12492.46" from="lane_entry_B" to="lane_exit_C" type="car_aggr4" /><trip id="r_luz_got_aAm_____3_car_aggr4.1" depart="12521.15" from="lane_entry_B" to="lane_exit_C" type="car_aggr4" /><trip id="r_luz_got_aAm_____3_car_aggr1.0" depart="12763.63" from="lane_entry_B" to="lane_exit_C" type="car_aggr1" /><trip id="r_axs_got_aAm____3_car_aggr4.0" depart="12870.43" from="lane_entry_B" to="lane_exit_C" type="car_aggr4" /><trip id="r_ers_ams_1_3_car_aggr4.0" depart="12879.25" from="lane_entry_A" to="lane_exit_C" type="car_aggr4" /><trip id="r_ers_ams_1_3_car_aggr4.1" depart="12987.19" from="lane_entry_A" to="lane_exit_C" type="car_aggr4" /><trip id="r_axs_got_aAm____3_motorbike.0" depart="13076.01" from="lane_entry_B" to="lane_exit_C" type="motorbike" /><trip id="r_luz_got_aAm_____3_car_aggr2.1" depart="13082.58" from="lane_entry_B" to="lane_exit_C" type="car_aggr2" /><trip id="r_luz_got_aAm_____3_car_aggr3.1" depart="13102.31" from="lane_entry_B" to="lane_exit_C" type="car_aggr3" /><trip id="r_axs_got_aAm____3_motorbike.1" depart="13196.59" from="lane_entry_B" to="lane_exit_C" type="motorbike" /><trip id="r_ers_ams_1_3_car_aggr3.0" depart="13219.44" from="lane_entry_A" to="lane_exit_C" type="car_aggr3" /><trip id="r_axs_got_aAm____3_car_aggr2.2" depart="13247.72" from="lane_entry_B" to="lane_exit_C" type="car_aggr2" /><trip id="r_axs_got_aAm____3_car_aggr1.1" depart="13255.54" from="lane_entry_B" to="lane_exit_C" type="car_aggr1" /><trip id="r_ers_ams_1_3_motorbike.0" depart="13310.33" from="lane_entry_A" to="lane_exit_C" type="motorbike" /><trip id="r_luz_got_aAm_____3_small_truck.1" depart="13328.53" from="lane_entry_B" to="lane_exit_C" type="small_truck" /><trip id="r_luz_got_aAm_____3_car_aggr4.2" depart="13332.65" from="lane_entry_B" to="lane_exit_C" type="car_aggr4" /><trip id="r