<?xml version='1.0' encoding='utf-8'?>
<trips><trip id="r_sus_axs_A______0_car_aggr4.0" depart="933.05" from="lane_entry_E" to="lane_exit_C" type="car_aggr4" /><trip id="r_axs_sus_A______0_small_truck.0" depart="1663.34" from="lane_entry_B" to="lane_exit_E" type="small_truck" /><trip id="r_axs_sus_A______0_car_aggr1.0" depart="1919.01" from="lane_entry_B" to="lane_exit_E" type="car_aggr1" /><trip id="r_sus_luz_A______0_small_truck.0" depart="1955.3" from="lane_entry_E" to="lane_exit_C" type="small_truck" /><trip id="r_luz_sus_A______0_car_aggr2.0" depart="2279.39" from="lane_entry_B" to="lane_exit_E" type="car_aggr2" /><trip id="r_axs_sus_A______0_car_aggr4.0" depart="2725.27" from="lane_entry_B" to="lane_exit_E" type="car_aggr4" /><trip id="r_sus_axs_A______1_car_aggr3.0" depart="4189.85" from="lane_entry_E" to="lane_exit_C" type="car_aggr3" /><trip id="r_sus_luz_A______1_car_aggr3.0" depart="4932.93" from="lane_entry_E" to="lane_exit_C" type="car_aggr3" /><trip id="r_got_luz_KS_1_big_truck.0" depart="5289.1" from="lane_entry_D" to="lane_exit_A" type="big_truck" /><trip id="r_luz_sus_A______0_car_aggr1.0" depart="5311.07" from="lane_entry_B" to="lane_exit_E" type="car_aggr1" /><trip id="r_got_luz_KS_1_car_aggr4.0" depart="5343.71" from="lane_entry_D" to="lane_exit_A" type="car_aggr4" /><trip id="r_axs_got_aAm____1_small_truck.0" depart="5344.65" from="lane_entry_A" to="lane_exit_D" type="small_truck" /><trip id="r_axs_got_aAm____1_small_truck.1" depart="5411.56" from="lane_entry_A" to="lane_exit_D" type="small_truck" /><trip id="r_axs_got_aAm____1_big_truck.0" depart="5496.37" from="lane_entry_A" to="lane_exit_D" type="big_truck" /><trip id="r_axs_got_aAm____1_car_aggr5.0" depart="5500.15" from="lane_entry_A" to="lane_exit_D" type="car_aggr5" /><trip id="r_luz_sus_A______0_car_aggr4.0" depart="5565.09" from="lane_entry_B" to="lane_exit_E" type="car_aggr4" /><trip id="r_axs_got_aWa____1_car_aggr1.0" depart="5668.94" from="lane_entry_B" to="lane_exit_D" type="car_aggr1" /><trip id="r_axs_got_aAm____1_car_aggr3.0" depart="5688.82" from="lane_entry_A" to="lane_exit_D" type="car_aggr3" /><trip id="r_axs_got_aAm____1_car_aggr2.0" depart="5729.43" from="lane_entry_A" to="lane_exit_D" type="car_aggr2" /><trip id="r_axs_got_aAm____1_car_aggr3.1" depart="5733.88" from="lane_entry_A" to="lane_exit_D" type="car_aggr3" /><trip id="r_axs_got_aAm____1_car_aggr4.0" depart="5737.68" from="lane_entry_A" to="lane_exit_D" type="car_aggr4" /><trip id="r_got_luz_KS_1_motorbike.0" depart="5825.49" from="lane_entry_D" to="lane_exit_A" type="motorbike" /><trip id="r_axs_got_aAm____1_car_aggr1.0" depart="5878.9" from="lane_entry_A" to="lane_exit_D" type="car_aggr1" /><trip id="r_axs_got_aAm____1_car_aggr5.1" depart="5882.12" from="lane_entry_A" to="lane_exit_D" type="car_aggr5" /><trip id="r_axs_got_aAm____1_car_aggr3.2" depart="5889.64" from="lane_entry_A" to="lane_exit_D" type="car_aggr3" /><trip id="r_axs_got_aEr____1_car_aggr4.0" depart="5893.46" from="lane_entry_A" to="lane_exit_D" type="car_aggr4" /><trip id="r_got_luz_KS_1_car_aggr2.0" depart="6104.56" from="lane_entry_D" to="lane_exit_A" type="car_aggr2" /><trip id="r_luz_got_aAm_____1_car_aggr3.0" depart="6213.28" from="lane_entry_A" to="lane_exit_D" type="car_aggr3" /><trip id="r_luz_got_aAm_____1_car_aggr2.0" depart="6297.83" from="lane_entry_A" to="lane_exit_D" type="car_aggr2" /><trip id="r_kla_sus_A______1_car_aggr3.0" depart="6360.01" from="lane_entry_B" to="lane_exit_E" type="car_aggr3" /><trip id="r_got_luz_KS_1_car_aggr1.0" depart="6362.76" from="lane_entry_D" to="lane_exit_A" type="car_aggr1" /><trip id="r_sus_axs_A______1_car_aggr4.0" depart="6405.19" from="lane_entry_E" to="lane_exit_C" type="car_aggr4" /><trip id="r_luz_got_aWa_____1_car_aggr4.0" depart="6414.98" from="lane_entry_B" to="lane_exit_D" type="car_aggr4" /><trip id="r_luz_sus_A______1_car_aggr3.0" depart="6432.36" from="lane_entry_B" to="lane_exit_E" type="car_aggr3" /><trip id="r_luz_got_aAm_____1_car_aggr1.0" depart="6504.34" from="lane_entry_A" to="lane_exit_D" type="car_aggr1" /><trip id="r_luz_got_aAm_____1_car_aggr3.1" depart="6508.73" from="lane_entry_A" to="lane_exit_D" type="car_aggr3" /><trip id="r_luz_got_aAm_____1_car_aggr5.0" depart="6512.33" from="lane_entry_A" to="lane_exit_D" type="car_aggr5" /><trip id="r_luz_got_aAm_____1_car_aggr3.2" depart="6517.21" from="lane_entry_A" to="lane_exit_D" type="car_aggr3" /><trip id="r_luz_got_aAm_____1_car_aggr4.0" depart="6521.28" from="lane_entry_A" to="lane_exit_D" type="car_aggr4" /><trip id="r_kla_fur_KS_____1_car_aggr5.0" depart="6524.74" from="lane_entry_A" to="lane_exit_D" type="car_aggr5" /><trip id="r_luz_got_aAm_____1_car_aggr1.1" depart="6531.87" from="lane_entry_A" to="lane_exit_D" type="car_aggr1" /><trip id="r_luz_sus_A______1_car_aggr3.1" depart="6540.25" from="lane_entry_B" to="lane_exit_E" type="car_aggr3" /><trip id="r_axs_sus_A______1_car_aggr5.0" depart="6564.52" from="lane_entry_B" to="lane_exit_E" type="car_aggr5" /><trip id="r_axs_got_aAm____1_car_aggr2.1" depart="6626.06" from="lane_entry_A" to="lane_exit_D" type="car_aggr2" /><trip id="r_luz_got_aAm_____1_car_aggr4.1" depart="6630.06" from="lane_entry_A" to="lane_exit_D" type="car_aggr4" /><trip id="r_luz_sus_A______1_car_aggr2.0" depart="6650.99" from="lane_entry_B" to="lane_exit_E" type="car_aggr2" /><trip id="r_sus_luz_A______1_car_aggr3.1" depart="6652.77" from="lane_entry_E" to="lane_exit_C" type="car_aggr3" /><trip id="r_luz_got_aAm_____1_motorbike.0" depart="6670.53" from="lane_entry_A" to="lane_exit_D" type="motorbike" /><trip id="r_axs_sus_A______1_motorbike.0" depart="6711.15" from="lane_entry_B" to="lane_exit_E" type="motorbike" /><trip id="r_axs_got_aAm____1_small_truck.2" depart="6743.79" from="lane_entry_A" to="lane_exit_D" type="small_truck" /><trip id="r_luz_got_aAm_____1_car_aggr5.1" depart="6747.16" from="lane_entry_A" to="lane_exit_D" type="car_aggr5" /><trip id="r_axs_sus_A______1_big_truck.0" depart="6763.1" from="lane_entry_B" to="lane_exit_E" type="big_truck" /><trip id="r_got_luz_KS_1_car_aggr2.1" depart="6792.53" from="lane_entry_D" to="lane_exit_A" type="car_aggr2" /><trip id="r_luz_sus_A______1_car_aggr2.1" depart="6914.85" from="lane_entry_B" to="lane_exit_E" type="car_aggr2" /><trip id="r_axs_got_aAm____1_car_aggr1.1" depart="6938.89" from="lane_entry_A" to="lane_exit_D" type="car_aggr1" /><trip id="r_luz_got_aAm_____1_car_aggr1.2" depart="6944.95" from="lane_entry_A" to="lane_exit_D" type="car_aggr1" /><trip id="r_axs_got_aAm____1_car_aggr1.2" depart="6974.09" from="lane_entry_A" to="lane_exit_D" type="car_aggr1" /><trip id="r_luz_got_aAm_____1_motorbike.1" depart="6978.14" from="lane_entry_A" to="lane_exit_D" type="motorbike" /><trip id="r_luz_got_aAm_____1_motorbike.2" depart="6981.76" from="lane_entry_A" to="lane_exit_D" type="motorbike" /><trip id="r_luz_fur_KS_____1_car_aggr3.0" depart="6986.4" from="lane_entry_A" to="lane_exit_D" type="car_aggr3" /><trip id="r_luz_fur_KS_____1_car_aggr5.0" depart="6989.77" from="lane_entry_A" to="lane_exit_D" type="car_aggr5" /><trip id="r_luz_fur_KS_____1_small_truck.0" depart="6994.14" from="lane_entry_A" to="lane_exit_D" type="small_truck" /><trip id="r_luz_got_aAm_____1_motorbike.3" depart="6998.4" from="lane_entry_A" to="lane_exit_D" type="motorbike" /><trip id="r_axs_got_aAm____1_car_aggr5.2" depart="7001.62" from="lane_entry_A" to="lane_exit_D" type="car_aggr5" /><trip id="r_luz_got_aAm_____1_car_aggr3.3" depart="7006.53" from="lane_entry_A" to="lane_exit_D" type="car_aggr3" /><trip id="r_luz_got_aAm_____1_car_aggr1.3" depart="7013.29" from="lane_entry_A" to="lane_exit_D" type="car_aggr1" /><trip id="r_axs_sus_A______1_car_aggr1.1" depart="7014.48" from="lane_entry_B" to="lane_exit_E" type="car_aggr1" /><trip id="r_kla_fur_KS_____1_car_aggr2.0" depart="7018.8" from="lane_entry_A" to="lane_exit_D" type="car_aggr2" /><trip id="r_axs_sus_A______1_car_aggr1.0" depart="7021.79" from="lane_entry_B" to="lane_exit_E" type="car_aggr1" /><trip id="r_luz_got_aAm_____1_car_aggr1.4" depart="7025.46" from="lane_entry_A" to="lane_exit_D" type="car_aggr1" /><trip id="r_axs_sus_A______1_big_truck.1" depart="7026.22" from="lane_entry_B" to="lane_exit_E" type="big_truck" /><trip id="r_kla_fur_KS_____1_car_aggr1.0" depart="7031.53" from="lane_entry_A" to="lane_exit_D" type="car_aggr1" /><trip id="r_luz_got_aAm_____1_car_aggr2.1" depart="7037.04" from="lane_entry_A" to="lane_exit_D" type="car_aggr2" /><trip id="r_axs_got_aAm____1_car_aggr5.3" depart="7040.43" from="lane_entry_A" to="lane_exit_D" type="car_aggr5" /><trip id="r_luz_got_aEr_____1_motorbike.0" depart="7092.84" from="lane_entry_A" to="lane_exit_D" type="motorbike" /><trip id="r_luz_fur_KS_____1_car_aggr1.0" depart="7401.91" from="lane_entry_A" to="lane_exit_D" type="car_aggr1" /><trip id="r_luz_fur_KS_____1_motorbike.0" depart="7405.94" from="lane_entry_A" to="lane_exit_D" type="motorbike" /><trip id="r_alt_and_1_1_motorbike.0" depart="7409.79" from="lane_entry_A" to="lane_exit_D" type="motorbike" /><trip id="r_got_luz_KS_1_small_truck.0" depart="7411.15" from="lane_entry_D" to="lane_exit_A" type="small_truck" /><trip id="r_kla_oba_KS_____1_motorbike.0" depart="7413.49" from="lane_entry_A" to="lane_exit_D" type="motorbike" /><trip id="r_luz_fur_KS_____1_car_aggr5.1" depart="7542.51" from="lane_entry_A" to="lane_exit_D" type="car_aggr5" /><trip id="r_alt_and_1_1_car_aggr5.0" depart="7545.89" from="lane_entry_A" to="lane_exit_D" type="car_aggr5" /><trip id="r_luz_got_aAm_____1_car_aggr2.2" depart="7734.55" from="lane_entry_A" to="lane_exit_D" type="car_aggr2" /><trip id="r_luz_got_aAm_____1_car_aggr2.3" depart="7743.67" from="lane_entry_A" to="lane_exit_D" type="car_aggr2" /><trip id="r_luz_got_aAm_____1_car_aggr5.2" depart="7746.91" from="lane_entry_A" to="lane_exit_D" type="car_aggr5" /><trip id="r_luz_got_aAm_____1_car_aggr5.3" depart="7750.15" from="lane_entry_A" to="lane_exit_D" type="car_aggr5" /><trip id="r_axs_got_aAm____1_car_aggr3.3" depart="7781.18" from="lane_entry_A" to="lane_exit_D" type="car_aggr3" /><trip id="r_luz_got_aAm_____1_car_aggr3.4" depart="7787.17" from="lane_entry_A" to="lane_exit_D" type="car_aggr3" /><trip id="r_luz_got_aAm_____1_motorbike.4" depart="7810.52" from="lane_entry_A" to="lane_exit_D" type="motorbike" /><trip id="r_axs_got_aAm____1_motorbike.0" depart="7851.53" from="lane_entry_A" to="lane_exit_D" type="motorbike" /><trip id="r_axs_sus_A______1_car_aggr1.2" depart="7878.22" from="lane_entry_B" to="lane_exit_E" type="car_aggr1" /><trip id="r_axs_sus_A______1_motorbike.1" depart="7907.72" from="lane_entry_B" to="lane_exit_E" type="motorbike" /><trip id="r_luz_sus_A______1_car_aggr3.2" depart="7912.27" from="lane_entry_B" to="lane_exit_E" type="car_aggr3" /><trip id="r_luz_sus_A______1_car_aggr2.2" depart="7937.57" from="lane_entry_B" to="lane_exit_E" type="car_aggr2" /><trip id="r_luz_got_aAm_____1_car_aggr4.2" depart="7980.8" from="lane_entry_A" to="lane_exit_D" type="car_aggr4" /><trip id="r_axs_sus_A______1_car_aggr3.0" depart="8046.65" from="lane_entry_B" to="lane_exit_E" type="car_aggr3" /><trip id="r_luz_sus_A______1_car_aggr5.0" depart="8058.28" from="lane_entry_B" to="lane_exit_E" type="car_aggr5" /><trip id="r_luz_got_aAm_____1_car_aggr2.4" depart="8067.08" from="lane_entry_A" to="lane_exit_D" type="car_aggr2" /><trip id="r_luz_got_aAm_____1_car_aggr5.4" depart="8070.59" from="lane_entry_A" to="lane_exit_D" type="car_aggr5" /><trip id="r_luz_got_aEr_____1_car_aggr1.0" depart="8077.79" from="lane_entry_A" to="lane_exit_D" type="car_aggr1" /><trip id="r_luz_fur_KS_____1_motorbike.1" depart="8081.71" from="lane_entry_A" to="lane_exit_D" type="motorbike" /><trip id="r_luz_got_aAm_____1_car_aggr3.5" depart="8086.33" from="lane_entry_A" to="lane_exit_D" type="car_aggr3" /><trip id="r_luz_got_aAm_____1_car_aggr2.5" depart="8092.19" from="lane_entry_A" to="lane_exit_D" type="car_aggr2" /><trip id="r_axs_got_aAm____1_car_aggr3.4" depart="8096.57" from="lane_entry_A" to="lane_exit_D" type="car_aggr3" /><trip id="r_luz_got_aAm_____1_big_truck.0" depart="8118.96" from="lane_entry_A" to="lane_exit_D" type="big_truck" /><trip id="r_axs_got_aAm____1_car_aggr5.4" depart="8122.81" from="lane_entry_A" to="lane_exit_D" type="car_aggr5" /><trip id="r_luz_got_aAm_____1_car_aggr5.5" depart="8126.22" from="lane_entry_A" to="lane_exit_D" type="car_aggr5" /><trip id="r_axs_got_aAm____1_car_aggr5.5" depart="8129.55" from="lane_entry_A" to="lane_exit_D" type="car_aggr5" /><trip id="r_axs_got_aAm____1_motorbike.1" depart="8133.72" from="lane_entry_A" to="lane_exit_D" type="motorbike" /><trip id="r_luz_sus_A______1_car_aggr3.3" depart="8139.1" from="lane_entry_B" to="lane_exit_E" type="car_aggr3" /><trip id="r_luz_got_aAm_____1_car_aggr2.6" depart="8139.66" from="lane_entry_A" to="lane_exit_D" type="car_aggr2" /><trip id="r_luz_got_aEr_____1_car_aggr5.0" depart="8142.94" from="lane_entry_A" to="lane_exit_D" type="car_aggr5" /><trip id="r_axs_got_aAm____1_car_aggr2.2" depart="8148.93" from="lane_entry_A" to="lane_exit_D" type="car_aggr2" /><trip id="r_axs_got_aAm____1_car_aggr5.6" depart="8152.3" from="lane_entry_A" to="lane_exit_D" type="car_aggr5" /><trip id="r_axs_sus_A______1_car_aggr5.1" depart="8164.76" from="lane_entry_B" to="lane_exit_E" type="car_aggr5" /><trip id="r_luz_got_aAm_____1_small_truck.0" depart="8191.03" from="lane_entry_A" to="lane_exit_D" type="small_truck" /><trip id="r_luz_got_aAm_____1_car_aggr5.6" depart="8194.39" from="lane_entry_A" to="lane_exit_D" type="car_aggr5" /><trip id="r_luz_got_aAm_____1_car_aggr3.6" depart="8199.19" from="lane_entry_A" to="lane_exit_D" type="car_aggr3" /><trip id="r_luz_got_aAm_____1_car_aggr5.7" depart="8202.51" from="lane_entry_A" to="lane_exit_D" type="car_aggr5" /><trip id="r_luz_sus_A______1_car_aggr1.0" depart="8216.64" from="lane_entry_B" to="lane_exit_E" type="car_aggr1" /><trip id="r_luz_sus_A______1_car_aggr1.1" depart="8293.45" from="lane_entry_B" to="lane_exit_E" type="car_aggr1" /><trip id="r_luz_fur_KS_____1_small_truck.1" depart="8324.46" from="lane_entry_A" to="lane_exit_D" type="small_truck" /><trip id="r_luz_fur_KS_____1_car_aggr5.2" depart="8327.92" from="lane_entry_A" to="lane_exit_D" type="car_aggr5" /><trip id="r_luz_got_aAm_____1_car_aggr5.8" depart="8331.12" from="lane_entry_A" to="lane_exit_D" type="car_aggr5" /><trip id="r_luz_got_aWa_____1_car_aggr4.1" depart="8333.73" from="lane_entry_B" to="lane_exit_D" type="car_aggr4" /><trip id="r_axs_got_aAm____1_car_aggr1.3" depart="8343.64" from="lane_entry_A" to="lane_exit_D" type="car_aggr1" /><trip id="r_luz_got_aAm_____1_car_aggr5.9" depart="8346.87" from="lane_entry_A" to="lane_exit_D" type="car_aggr5" /><trip id="r_axs_got_aAm____1_car_aggr4.1" depart="8371.35" from="lane_entry_A" to="lane_exit_D" type="car_aggr4" /><trip id="r_luz_got_aAm_____1_car_aggr4.3" depart="8434.21" from="lane_entry_A" to="lane_exit_D" type="car_aggr4" /><trip id="r_sus_kla_A______2_car_aggr5.0" depart="8443.2" from="lane_entry_E" to="lane_exit_C" type="car_aggr5" /><trip id="r_got_luz_KS_2_car_aggr4.0" depart="8497.05" from="lane_entry_D" to="lane_exit_A" type="car_aggr4" /><trip id="r_luz_sus_A______1_motorbike.0" depart="8523.46" from="lane_entry_B" to="lane_exit_E" type="motorbike" /><trip id="r_luz_sus_A______1_car_aggr3.4" depart="8532.1" from="lane_entry_B" to="lane_exit_E" type="car_aggr3" /><trip id="r_axs_got_aAm____1_car_aggr2.3" depart="8560.72" from="lane_entry_A" to="lane_exit_D" type="car_aggr2" /><trip id="r_luz_got_aAm_____1_car_aggr3.7" depart="8565.2" from="lane_entry_A" to="lane_exit_D" type="car_aggr3" /><trip id="r_axs_got_aAm____1_car_aggr3.5" depart="8619.57" from="lane_entry_A" to="lane_exit_D" type="car_aggr3" /><trip id="r_axs_got_aAm____1_car_aggr5.7" depart="8622.88" from="lane_entry_A" to="lane_exit_D" type="car_aggr5" /><trip id="r_axs_got_aWa____1_car_aggr4.0" depart="8634.19" from="lane_entry_B" to="lane_exit_D" type="car_aggr4" /><trip id="r_luz_got_aAm_____1_car_aggr2.7" depart="8658.13" from="lane_entry_A" to="lane_exit_D" type="car_aggr2" /><trip id="r_luz_got_aAm_____1_small_truck.1" depart="8682.63" from="lane_entry_A" to="lane_exit_D" type="small_truck" /><trip id="r_axs_got_aAm____1_small_truck.3" depart="8686.49" from="lane_entry_A" to="lane_exit_D" type="small_truck" /><trip id="r_axs_got_aAm____1_motorbike.2" depart="8690.43" from="lane_entry_A" to="lane_exit_D" type="motorbike" /><trip id="r_luz_got_aAm_____1_small_truck.2" depart="8706.82" from="lane_entry_A" to="lane_exit_D" type="small_truck" /><trip id="r_alt_and_1_1_car_aggr1.0" depart="8770.12" from="lane_entry_A" to="lane_exit_D" type="car_aggr1" /><trip id="r_axs_got_aEr____1_car_aggr2.0" depart="8775.63" from="lane_entry_A" to="lane_exit_D" type="car_aggr2" /><trip id="r_axs_got_aAm____1_small_truck.4" depart="8779.38" from="lane_entry_A" to="lane_exit_D" type="small_truck" /><trip id="r_axs_got_aEr____1_car_aggr4.1" depart="8783.48" from="lane_entry_A" to="lane_exit_D" type="car_aggr4" /><trip id="r_sus_kla_A______2_car_aggr1.0" depart="8826.49" from="lane_entry_E" to="lane_exit_C" type="car_aggr1" /><trip id="r_axs_got_aAm____1_small_truck.5" depart="8843.87" from="lane_entry_A" to="lane_exit_D" type="small_truck" /><trip id="r_axs_got_aAm____2_car_aggr2.0" depart="8849.52" from="lane_entry_A" to="lane_exit_D" type="car_aggr2" /><trip id="r_luz_fur_KS_____1_car_aggr2.0" depart="8861.36" from="lane_entry_A" to="lane_exit_D" type="car_aggr2" /><trip id="r_axs_got_aAm____2_motorbike.0" depart="8914.53" from="lane_entry_A" to="lane_exit_D" type="motorbike" /><trip id="r_axs_got_aAm____1_car_aggr2.4" depart="8977.93" from="lane_entry_A" to="lane_exit_D" type="car_aggr2" /><trip id="r_axs_got_aAm____2_car_aggr2.1" depart="8983.48" from="lane_entry_A" to="lane_exit_D" type="car_aggr2" /><trip id="r_axs_got_aAm____2_car_aggr3.0" depart="9082.92" from="lane_entry_A" to="lane_exit_D" type="car_aggr3" /><trip id="r_luz_got_aAm_____1_small_truck.3" depart="9134.43" from="lane_entry_A" to="lane_exit_D" type="small_truck" /><trip id="r_luz_got_aAm_____1_motorbike.5" depart="9138.34" from="lane_entry_A" to="lane_exit_D" type="motorbike" /><trip id="r_luz_got_aAm_____1_car_aggr5.10" depart="9141.45" from="lane_entry_A" to="lane_exit_D" type="car_aggr5" /><trip id="r_axs_got_aAm____2_car_aggr3.1" depart="9146.25" from="lane_entry_A" to="lane_exit_D" type="car_aggr3" /><trip id="r_luz_fur_KS_____1_motorbike.2" depart="9150.39" from="lane_entry_A" to="lane_exit_D" type="motorbike" /><trip id="r_sus_fur_KS_____2_car_aggr2.0" depart="9166.02" from="lane_entry_E" to="lane_exit_D" type="car_aggr2" /><trip id="r_luz_sus_A______1_car_aggr1.2" depart="9186.92" from="lane_entry_B" to="lane_exit_E" type="car_aggr1" /><trip id="r_luz_got_aAm_____1_car_aggr2.8" depart="9190.3" from="lane_entry_A" to="lane_exit_D" type="car_aggr2" /><trip id="r_axs_got_aAm____2_car_aggr5.0" depart="9193.47" from="lane_entry_A" to="lane_exit_D" type="car_aggr5" /><trip id="r_luz_sus_A______1_car_aggr1.3" depart="9212.42" from="lane_entry_B" to="lane_exit_E" type="car_aggr1" /><trip id="r_luz_got_aAm_____1_car_aggr1.5" depart="9216.66" from="lane_entry_A" to="lane_exit_D" type="car_aggr1" /><trip id="r_luz_got_aAm_____1_car_aggr1.6" depart="9222.67" from="lane_entry_A" to="lane_exit_D" type="car_aggr1" /><trip id="r_luz_sus_A______1_small_truck.0" depart="9225.87" from="lane_entry_B" to="lane_exit_E" type="small_truck" /><trip id="r_axs_got_aAm____2_car_aggr5.1" depart="9226.77" from="lane_entry_A" to="lane_exit_D" type="car_aggr5" /><trip id="r_luz_got_aAm_____1_car_aggr5.11" depart="9229.92" from="lane_entry_A" to="lane_exit_D" type="car_aggr5" /><trip id="r_axs_sus_A______2_car_aggr5.0" depart="9261.17" from="lane_entry_B" to="lane_exit_E" type="car_aggr5" /><trip id="r_luz_got_aAm_____1_small_truck.4" depart="9339.66" from="lane_entry_A" to="lane_exit_D" type="small_truck" /><trip id="r_luz_got_aAm_____1_car_aggr3.8" depart="9344.09" from="lane_entry_A" to="lane_exit_D" type="car_aggr3" /><trip id="r_luz_got_aAm_____1_car_aggr3.11" depart="9348.55" from="lane_entry_A" to="lane_exit_D" type="car_aggr3" /><trip id="r_luz_got_aAm_____1_car_aggr3.9" depart="9386.19" from="lane_entry_A" to="lane_exit_D" type="car_aggr3" /><trip id="r_luz_got_aAm_____1_car_aggr4.4" depart="9390.07" from="lane_entry_A" to="lane_exit_D" type="car_aggr4" /><trip id="r_luz_sus_A______2_car_aggr5.0" depart="9391.96" from="lane_entry_B" to="lane_exit_E" type="car_aggr5" /><trip id="r_luz_got_aAm_____1_car_aggr3.10" depart="9394.78" from="lane_entry_A" to="lane_exit_D" type="car_aggr3" /><trip id="r_axs_got_aWa____2_car_aggr4.0" depart="9396.69" from="lane_entry_B" to="lane_exit_D" type="car_aggr4" /><trip id="r_luz_got_aAm_____1_car_aggr4.5" depart="9398.77" from="lane_entry_A" to="lane_exit_D" type="car_aggr4" /><trip id="r_luz_got_aAm_____1_car_aggr1.7" depart="9405.81" from="lane_entry_A" to="lane_exit_D" type="car_aggr1" /><trip id="r_axs_got_aAm____2_car_aggr5.2" depart="9409.18" from="lane_entry_A" to="lane_exit_D" type="car_aggr5" /><trip id="r_luz_got_aAm_____1_car_aggr2.9" depart="9415.36" from="lane_entry_A" to="lane_exit_D" type="car_aggr2" /><trip id="r_axs_got_aWa____2_small_truck.0" depart="9417.15" from="lane_entry_B" to="lane_exit_D" type="small_truck" /><trip id="r_luz_fur_KS_____1_car_aggr5.3" depart="9418.6" from="lane_entry_A" to="lane_exit_D" type="car_aggr5" /><trip id="r_axs_got_aWa____2_car_aggr5.0" depart="9422.65" from="lane_entry_B" to="lane_exit_D" type="car_aggr5" /><trip id="r_axs_sus_A______2_car_aggr3.0" depart="9456.22" from="lane_entry_B" to="lane_exit_E" type="car_aggr3" /><trip id="r_luz_sus_A______2_small_truck.0" depart="9534.52" from="lane_entry_B" to="lane_exit_E" type="small_truck" /><trip id="r_luz_got_aAm_____2_car_aggr4.0" depart="9553.51" from="lane_entry_A" to="lane_exit_D" type="car_aggr4" /><trip id="r_luz_sus_A______2_car_aggr5.1" depart="9556.16" from="lane_entry_B" to="lane_exit_E" type="car_aggr5" /><trip id="r_axs_sus_A______2_car_aggr5.1" depart="9568.38" from="lane_entry_B" to="lane_exit_E" type="car_aggr5" /><trip id="r_luz_sus_A______2_car_aggr2.0" depart="9634.92" from="lane_entry_B" to="lane_exit_E" type="car_aggr2" /><trip id="r_axs_got_aAm____2_motorbike.1" depart="9653.39" from="lane_entry_A" to="lane_exit_D" type="motorbike" /><trip id="r_axs_got_aWa____2_car_aggr3.0" depart="9660.56" from="lane_entry_B" to="lane_exit_D" type="car_aggr3" /><trip id="r_luz_got_aWa_____2_car_aggr3.0" depart="9669.34" from="lane_entry_B" to="lane_exit_D" type="car_aggr3" /><trip id="r_luz_got_aAm_____2_car_aggr3.0" depart="9672.7" from="lane_entry_A" to="lane_exit_D" type="car_aggr3" /><trip id="r_luz_got_aAm_____2_car_aggr3.1" depart="9677.11" from="lane_entry_A" to="lane_exit_D" type="car_aggr3" /><trip id="r_axs_got_aAm____2_car_aggr5.3" depart="9690.1" from="lane_entry_A" to="lane_exit_D" type="car_aggr5" /><trip id="r_luz_got_aAm_____2_car_aggr5.0" depart="9693.3" from="lane_entry_A" to="lane_exit_D" type="car_aggr5" /><trip id="r_axs_got_aAm____2_car_aggr4.0" depart="9697.56" from="lane_entry_A" to="lane_exit_D" type="car_aggr4" /><trip id="r_luz_got_aAm_____2_car_aggr3.2" depart="9702.13" from="lane_entry_A" to="lane_exit_D" type="car_aggr3" /><trip id="r_luz_sus_A______2_car_aggr5.2" depart="9752.72" from="lane_entry_B" to="lane_exit_E" type="car_aggr5" /><trip id="r_sus_axs_A______2_car_aggr3.0" depart="9775.81" from="lane_entry_E" to="lane_exit_C" type="car_aggr3" /><trip id="r_axs_got_aWa____2_car_aggr5.1" depart="9782.44" from="lane_entry_B" to="lane_exit_D" type="car_aggr5" /><trip id="r_axs_got_aAm____2_car_aggr1.0" depart="9863.59" from="lane_entry_A" to="lane_exit_D" type="car_aggr1" /><trip id="r_axs_sus_A______2_car_aggr3.1" depart="9883.12" from="lane_entry_B" to="lane_exit_E" type="car_aggr3" /><trip id="r_axs_got_aWa____2_car_aggr2.0" depart="9890.41" from="lane_entry_B" to="lane_exit_D" type="car_aggr2" /><trip id="r_axs_got_aAm____2_car_aggr3.2" depart="9904.53" from="lane_entry_A" to="lane_exit_D" type="car_aggr3" /><trip id="r_luz_got_aAm_____2_car_aggr5.1" depart="9907.82" from="lane_entry_A" to="lane_exit_D" type="car_aggr5" /><trip id="r_luz_got_aAm_____2_small_truck.0" depart="9912.2" from="lane_entry_A" to="lane_exit_D" type="small_truck" /><trip id="r_luz_got_aWa_____2_car_aggr3.1" depart="9921.28" from="lane_entry_B" to="lane_exit_D" type="car_aggr3" /><trip id="r_axs_got_aAm____2_small_truck.0" depart="9945.57" from="lane_entry_A" to="lane_exit_D" type="small_truck" /><trip id="r_luz_got_aAm_____2_car_aggr5.2" depart="9948.89" from="lane_entry_A" to="lane_exit_D" type="car_aggr5" /><trip id="r_axs_got_aAm____2_car_aggr5.4" depart="9952.11" from="lane_entry_A" to="lane_exit_D" type="car_aggr5" /><trip id="r_axs_got_aEr____2_car_aggr5.0" depart="9955.25" from="lane_entry_A" to="lane_exit_D" type="car_aggr5" /><trip id="r_luz_got_aWa_____2_car_aggr3.2" depart="9988.6" from="lane_entry_B" to="lane_exit_D" type="car_aggr3" /><trip id="r_axs_sus_A______2_car_aggr2.0" depart="10006.69" from="lane_entry_B" to="lane_exit_E" type="car_aggr2" /><trip id="r_axs_got_aAm____2_small_truck.1" depart="10097.99" from="lane_entry_A" to="lane_exit_D" type="small_truck" /><trip id="r_axs_got_aAm____2_car_aggr3.3" depart="10102.52" from="lane_entry_A" to="lane_exit_D" type="car_aggr3" /><trip id="r_axs_got_aEr____2_car_aggr3.0" depart="10106.89" from="lane_entry_A" to="lane_exit_D" type="car_aggr3" /><trip id="r_axs_got_aAm____2_car_aggr5.5" depart="10110.26" from="lane_entry_A" to="lane_exit_D" type="car_aggr5" /><trip id="r_luz_got_aWa_____2_motorbike.0" depart="10202.42" from="lane_entry_B" to="lane_exit_D" type="motorbike" /><trip id="r_got_luz_KS_2_car_aggr4.1" depart="10247.84" from="lane_entry_D" to="lane_exit_A" type="car_aggr4" /><trip id="r_got_luz_KS_2_car_aggr5.0" depart="10251.06" from="lane_entry_D" to="lane_exit_A" type="car_aggr5" /><trip id="r_luz_sus_A______2_car_aggr5.3" depart="10269.74" from="lane_entry_B" to="lane_exit_E" type="car_aggr5" /><trip id="r_luz_got_aAm_____2_car_aggr2.0" depart="10276.59" from="lane_entry_A" to="lane_exit_D" type="car_aggr2" /><trip id="r_axs_sus_A______2_car_aggr3.2" depart="10329.87" from="lane_entry_B" to="lane_exit_E" type="car_aggr3" /><trip id="r_axs_got_aAm____2_car_aggr2.2" depart="10332.51" from="lane_entry_A" to="lane_exit_D" type="car_aggr2" /><trip id="r_luz_got_aAm_____2_car_aggr5.3" depart="10372.93" from="lane_entry_A" to="lane_exit_D" type="car_aggr5" /><trip id="r_luz_got_aAm_____2_small_truck.1" depart="10449.18" from="lane_entry_A" to="lane_exit_D" type="small_truck" /><trip id="r_axs_got_aAm____2_car_aggr2.3" depart="10454.8" from="lane_entry_A" to="lane_exit_D" type="car_aggr2" /><trip id="r_axs_got_aEr____2_car_aggr3.1" depart="10459.22" from="lane_entry_A" to="lane_exit_D" type="car_aggr3" /><trip id="r_luz_got_aWa_____2_motorbike.1" depart="10686.21" from="lane_entry_B" to="lane_exit_D" type="motorbike" /><trip id="r_luz_got_aAm_____2_car_aggr1.0" depart="10731.13" from="lane_entry_A" to="lane_exit_D" type="car_aggr1" /><trip id="r_axs_got_aAm____2_car_aggr4.1" depart="10735.08" from="lane_entry_A" to="lane_exit_D" type="car_aggr4" /><trip id="r_axs_got_aAm____2_motorbike.2" depart="10738.96" from="lane_entry_A" to="lane_exit_D" type="motorbike" /><trip id="r_luz_got_aWa_____2_car_aggr1.0" depart="10762.51" from="lane_entry_B" to="lane_exit_D" type="car_aggr1" /><trip id="r_axs_sus_A______2_car_aggr2.1" depart="10768.48" from="lane_entry_B" to="lane_exit_E" type="car_aggr2" /><trip id="r_luz_got_aWa_____2_motorbike.2" depart="10787.5" from="lane_entry_B" to="lane_exit_D" type="motorbike" /><trip id="r_luz_got_aWa_____2_car_aggr5.0" depart="10876.31" from="lane_entry_B" to="lane_exit_D" type="car_aggr5" /><trip id="r_got_luz_KS_2_car_aggr5.1" depart="10945.36" from="lane_entry_D" to="lane_exit_A" type="car_aggr5" /><trip id="r_luz_got_aWa_____2_car_aggr4.0" depart="10995.76" from="lane_entry_B" to="lane_exit_D" type="car_aggr4" /><trip id="r_axs_sus_A______2_car_aggr1.0" depart="11035.64" from="lane_entry_B" to="lane_exit_E" type="car_aggr1" /><trip id="r_axs_got_aAm____2_car_aggr4.2" depart="11061.53" from="lane_entry_A" to="lane_exit_D" type="car_aggr4" /><trip id="r_axs_sus_A______2_car_aggr1.1" depart="11076.64" from="lane_entry_B" to="lane_exit_E" type="car_aggr1" /><trip id="r_axs_got_aWa____2_motorbike.0" depart="11089.41" from="lane_entry_B" to="lane_exit_D" type="motorbike" /><trip id="r_luz_got_aAm_____2_car_aggr5.4" depart="11220.63" from="lane_entry_A" to="lane_exit_D" type="car_aggr5" /><trip id="r_axs_got_aAm____2_motorbike.3" depart="11224.72" from="lane_entry_A" to="lane_exit_D" type="motorbike" /><trip id="r_got_luz_KS_2_car_aggr5.2" depart="11229.74" from="lane_entry_D" to="lane_exit_A" type="car_aggr5" /><trip id="r_axs_got_aAm____2_car_aggr2.4" depart="11230.48" from="lane_entry_A" to="lane_exit_D" type="car_aggr2" /><trip id="r_axs_got_aAm____2_car_aggr1.1" depart="11237.25" from="lane_entry_A" to="lane_exit_D" type="car_aggr1" /><trip id="r_axs_got_aEr____2_car_aggr5.1" depart="11240.62" from="lane_entry_A" to="lane_exit_D" type="car_aggr5" /><trip id="r_axs_got_aAm____2_car_aggr3.4" depart="11283.69" from="lane_entry_A" to="lane_exit_D" type="car_aggr3" /><trip id="r_axs_sus_A______2_car_aggr5.2" depart="11292.78" from="lane_entry_B" to="lane_exit_E" type="car_aggr5" /><trip id="r_axs_got_aAm____2_car_aggr4.3" depart="11349.19" from="lane_entry_A" to="lane_exit_D" type="car_aggr4" /><trip id="r_axs_got_aAm____2_motorbike.4" depart="11352.96" from="lane_entry_A" to="lane_exit_D" type="motorbike" /><trip id="r_luz_got_aWa_____2_car_aggr1.1" depart="11375.77" from="lane_entry_B" to="lane_exit_D" type="car_aggr1" /><trip id="r_axs_got_aWa____2_car_aggr1.0" depart="11382.89" from="lane_entry_B" to="lane_exit_D" type="car_aggr1" /><trip id="r_axs_got_aWa____2_car_aggr1.1" depart="11407.75" from="lane_entry_B" to="lane_exit_D" type="car_aggr1" /><trip id="r_luz_got_aAm_____