<?xml version='1.0' encoding='utf-8'?>
<trips><trip id="r_alt_round_5_1_car_aggr3.0" depart="4129.76" from="lane_entry_B" to="lane_exit_A" type="car_aggr3" /><trip id="r_alt_ers_1_1_car_aggr4.0" depart="4268.63" from="lane_entry_A" to="lane_exit_D" type="car_aggr4" /><trip id="r_alt_ers_1_1_motorbike.0" depart="4349.36" from="lane_entry_A" to="lane_exit_D" type="motorbike" /><trip id="r_ers_alt_1_1_car_aggr2.0" depart="4474.7" from="lane_entry_D" to="lane_exit_B" type="car_aggr2" /><trip id="r_alt_round_5_1_car_aggr4.0" depart="4514.83" from="lane_entry_B" to="lane_exit_A" type="car_aggr4" /><trip id="r_luz_tun_aAl_eEr_1_car_aggr4.0" depart="4760.44" from="lane_entry_A" to="lane_exit_D" type="car_aggr4" /><trip id="r_kla_tun_A______1_car_aggr2.0" depart="4767.58" from="lane_entry_C" to="lane_exit_D" type="car_aggr2" /><trip id="r_kla_sus_A______1_car_aggr3.0" depart="4833.12" from="lane_entry_C" to="lane_exit_D" type="car_aggr3" /><trip id="r_alt_ers_1_1_car_aggr3.0" depart="4878.49" from="lane_entry_A" to="lane_exit_D" type="car_aggr3" /><trip id="r_alt_ers_1_1_car_aggr4.1" depart="4928.55" from="lane_entry_A" to="lane_exit_D" type="car_aggr4" /><trip id="r_alt_round_5_1_car_aggr1.0" depart="4968.82" from="lane_entry_B" to="lane_exit_A" type="car_aggr1" /><trip id="r_luz_tun_aAl_eEr_1_car_aggr5.0" depart="5135.76" from="lane_entry_A" to="lane_exit_D" type="car_aggr5" /><trip id="r_kla_fur_KS_____1_car_aggr5.0" depart="5141.78" from="lane_entry_C" to="lane_exit_D" type="car_aggr5" /><trip id="r_luz_tun_aAl_eEr_1_car_aggr2.0" depart="5338.75" from="lane_entry_A" to="lane_exit_D" type="car_aggr2" /><trip id="r_kla_fur_KS_____1_car_aggr2.0" depart="5382.49" from="lane_entry_C" to="lane_exit_D" type="car_aggr2" /><trip id="r_kla_fur_KS_____1_car_aggr1.0" depart="5389.22" from="lane_entry_C" to="lane_exit_D" type="car_aggr1" /><trip id="r_luz_fur_KS_____1_car_aggr3.0" depart="5404.96" from="lane_entry_B" to="lane_exit_D" type="car_aggr3" /><trip id="r_luz_fur_KS_____1_car_aggr5.0" depart="5408.37" from="lane_entry_B" to="lane_exit_D" type="car_aggr5" /><trip id="r_luz_fur_KS_____1_small_truck.0" depart="5432.59" from="lane_entry_B" to="lane_exit_D" type="small_truck" /><trip id="r_got_kla_A______1_car_aggr3.0" depart="5436.6" from="lane_entry_D" to="lane_exit_C" type="car_aggr3" /><trip id="r_luz_tun_aAl_eEr_1_small_truck.0" depart="5564.46" from="lane_entry_A" to="lane_exit_D" type="small_truck" /><trip id="r_alt_ers_1_1_car_aggr1.0" depart="5570.67" from="lane_entry_A" to="lane_exit_D" type="car_aggr1" /><trip id="r_tun_kla_A______1_car_aggr3.0" depart="5611.66" from="lane_entry_D" to="lane_exit_C" type="car_aggr3" /><trip id="r_tun_kla_A______1_car_aggr5.0" depart="5622.75" from="lane_entry_D" to="lane_exit_C" type="car_aggr5" /><trip id="r_tun_kla_A______1_car_aggr5.1" depart="5627.22" from="lane_entry_D" to="lane_exit_C" type="car_aggr5" /><trip id="r_luz_fur_KS_____1_car_aggr1.0" depart="5627.58" from="lane_entry_B" to="lane_exit_D" type="car_aggr1" /><trip id="r_luz_fur_KS_____1_motorbike.0" depart="5631.89" from="lane_entry_B" to="lane_exit_D" type="motorbike" /><trip id="r_alt_and_1_1_motorbike.0" depart="5684.69" from="lane_entry_B" to="lane_exit_D" type="motorbike" /><trip id="r_luz_tun_aAl_eEr_1_small_truck.1" depart="5738.77" from="lane_entry_A" to="lane_exit_D" type="small_truck" /><trip id="r_luz_tun_aAl_eEr_1_car_aggr5.1" depart="5742.22" from="lane_entry_A" to="lane_exit_D" type="car_aggr5" /><trip id="r_kla_oba_KS_____1_motorbike.0" depart="5754.96" from="lane_entry_C" to="lane_exit_D" type="motorbike" /><trip id="r_tun_kla_A______1_car_aggr5.2" depart="5902.88" from="lane_entry_D" to="lane_exit_C" type="car_aggr5" /><trip id="r_luz_fur_KS_____1_car_aggr5.1" depart="5962.25" from="lane_entry_B" to="lane_exit_D" type="car_aggr5" /><trip id="r_tun_kla_A______1_car_aggr2.0" depart="6056.34" from="lane_entry_D" to="lane_exit_C" type="car_aggr2" /><trip id="r_tun_kla_A______1_car_aggr3.1" depart="6092.82" from="lane_entry_D" to="lane_exit_C" type="car_aggr3" /><trip id="r_tun_kla_A______1_motorbike.0" depart="6150.27" from="lane_entry_D" to="lane_exit_C" type="motorbike" /><trip id="r_alt_ers_1_1_motorbike.1" depart="6194.4" from="lane_entry_A" to="lane_exit_D" type="motorbike" /><trip id="r_alt_and_1_1_car_aggr5.0" depart="6214.64" from="lane_entry_B" to="lane_exit_D" type="car_aggr5" /><trip id="r_tun_kla_A______1_car_aggr3.2" depart="6255.78" from="lane_entry_D" to="lane_exit_C" type="car_aggr3" /><trip id="r_alt_round4_1_motorbike.0" depart="6341.14" from="lane_entry_B" to="lane_exit_B" type="motorbike" /><trip id="r_tun_kla_A______1_car_aggr5.3" depart="6356.7" from="lane_entry_D" to="lane_exit_C" type="car_aggr5" /><trip id="r_tun_kla_A______1_small_truck.0" depart="6442.09" from="lane_entry_D" to="lane_exit_C" type="small_truck" /><trip id="r_tun_kla_A______1_car_aggr3.3" depart="6518.0" from="lane_entry_D" to="lane_exit_C" type="car_aggr3" /><trip id="r_tun_kla_A______1_car_aggr1.0" depart="6574.5" from="lane_entry_D" to="lane_exit_C" type="car_aggr1" /><trip id="r_tun_kla_A______1_car_aggr3.4" depart="6618.75" from="lane_entry_D" to="lane_exit_C" type="car_aggr3" /><trip id="r_luz_tun_aAl_eEr_1_motorbike.0" depart="6621.68" from="lane_entry_A" to="lane_exit_D" type="motorbike" /><trip id="r_luz_fur_KS_____1_motorbike.1" depart="6660.51" from="lane_entry_B" to="lane_exit_D" type="motorbike" /><trip id="r_luz_tun_aAl_eEr_1_small_truck.2" depart="6757.57" from="lane_entry_A" to="lane_exit_D" type="small_truck" /><trip id="r_luz_fur_KS_____1_small_truck.1" depart="6861.47" from="lane_entry_B" to="lane_exit_D" type="small_truck" /><trip id="r_luz_fur_KS_____1_car_aggr5.2" depart="6880.73" from="lane_entry_B" to="lane_exit_D" type="car_aggr5" /><trip id="r_alt_ers_1_1_car_aggr3.1" depart="6922.95" from="lane_entry_A" to="lane_exit_D" type="car_aggr3" /><trip id="r_alt_and_1_1_car_aggr1.0" depart="7058.03" from="lane_entry_B" to="lane_exit_D" type="car_aggr1" /><trip id="r_got_luz_KS_1_big_truck.0" depart="7068.24" from="lane_entry_D" to="lane_exit_A" type="big_truck" /><trip id="r_got_luz_KS_1_car_aggr4.0" depart="7072.36" from="lane_entry_D" to="lane_exit_A" type="car_aggr4" /><trip id="r_alt_round_5_1_small_truck.0" depart="7085.55" from="lane_entry_B" to="lane_exit_A" type="small_truck" /><trip id="r_tun_kla_A______1_car_aggr3.5" depart="7086.22" from="lane_entry_D" to="lane_exit_C" type="car_aggr3" /><trip id="r_luz_tun_aAl_eEr_1_small_truck.3" depart="7135.29" from="lane_entry_A" to="lane_exit_D" type="small_truck" /><trip id="r_ers_alt_1_1_car_aggr4.0" depart="7227.92" from="lane_entry_D" to="lane_exit_B" type="car_aggr4" /><trip id="r_got_luz_KS_1_motorbike.0" depart="7355.89" from="lane_entry_D" to="lane_exit_A" type="motorbike" /><trip id="r_luz_tun_aAl_eEr_1_motorbike.1" depart="7385.94" from="lane_entry_A" to="lane_exit_D" type="motorbike" /><trip id="r_alt_round_5_1_car_aggr3.1" depart="7411.89" from="lane_entry_B" to="lane_exit_A" type="car_aggr3" /><trip id="r_luz_fur_KS_____1_car_aggr2.0" depart="7509.51" from="lane_entry_B" to="lane_exit_D" type="car_aggr2" /><trip id="r_tun_kla_A______1_car_aggr2.1" depart="7596.97" from="lane_entry_D" to="lane_exit_C" type="car_aggr2" /><trip id="r_luz_tun_aAl_eEr_1_car_aggr2.1" depart="7635.22" from="lane_entry_A" to="lane_exit_D" type="car_aggr2" /><trip id="r_luz_tun_aAl_eEr_1_car_aggr1.0" depart="7641.75" from="lane_entry_A" to="lane_exit_D" type="car_aggr1" /><trip id="r_got_luz_KS_1_car_aggr2.0" depart="7685.14" from="lane_entry_D" to="lane_exit_A" type="car_aggr2" /><trip id="r_tun_kla_A______1_car_aggr2.2" depart="7697.11" from="lane_entry_D" to="lane_exit_C" type="car_aggr2" /><trip id="r_luz_fur_KS_____1_motorbike.2" depart="7777.24" from="lane_entry_B" to="lane_exit_D" type="motorbike" /><trip id="r_tun_kla_A______1_car_aggr1.1" depart="7785.44" from="lane_entry_D" to="lane_exit_C" type="car_aggr1" /><trip id="r_tun_kla_A______1_car_aggr4.0" depart="7796.6" from="lane_entry_D" to="lane_exit_C" type="car_aggr4" /><trip id="r_got_luz_KS_1_car_aggr1.0" depart="7817.23" from="lane_entry_D" to="lane_exit_A" type="car_aggr1" /><trip id="r_tun_kla_A______1_car_aggr3.6" depart="7864.54" from="lane_entry_D" to="lane_exit_C" type="car_aggr3" /><trip id="r_tun_kla_A______1_car_aggr5.4" depart="7867.66" from="lane_entry_D" to="lane_exit_C" type="car_aggr5" /><trip id="r_got_luz_KS_1_car_aggr2.1" depart="8106.43" from="lane_entry_D" to="lane_exit_A" type="car_aggr2" /><trip id="r_luz_tun_aAl_eEr_1_car_aggr4.1" depart="8129.66" from="lane_entry_A" to="lane_exit_D" type="car_aggr4" /><trip id="r_luz_fur_KS_____1_car_aggr5.3" depart="8156.98" from="lane_entry_B" to="lane_exit_D" type="car_aggr5" /><trip id="r_kla_tun_A______2_car_aggr5.0" depart="8348.64" from="lane_entry_C" to="lane_exit_D" type="car_aggr5" /><trip id="r_tun_kla_A______1_motorbike.1" depart="8367.38" from="lane_entry_D" to="lane_exit_C" type="motorbike" /><trip id="r_tun_kla_A______1_motorbike.2" depart="8387.43" from="lane_entry_D" to="lane_exit_C" type="motorbike" /><trip id="r_tun_kla_A______1_car_aggr2.3" depart="8398.52" from="lane_entry_D" to="lane_exit_C" type="car_aggr2" /><trip id="r_luz_tun_aAl_eEr_1_motorbike.2" depart="8455.36" from="lane_entry_A" to="lane_exit_D" type="motorbike" /><trip id="r_tun_kla_A______1_car_aggr5.5" depart="8485.77" from="lane_entry_D" to="lane_exit_C" type="car_aggr5" /><trip id="r_alt_round3_2_car_aggr2.0" depart="8485.79" from="lane_entry_B" to="lane_exit_B" type="car_aggr2" /><trip id="r_luz_tun_aAl_eEr_2_car_aggr5.0" depart="8597.63" from="lane_entry_A" to="lane_exit_D" type="car_aggr5" /><trip id="r_alt_ers_1_2_car_aggr5.0" depart="8760.42" from="lane_entry_A" to="lane_exit_D" type="car_aggr5" /><trip id="r_alt_ers_1_2_big_truck.0" depart="8842.39" from="lane_entry_A" to="lane_exit_D" type="big_truck" /><trip id="r_got_luz_KS_1_small_truck.0" depart="8849.57" from="lane_entry_D" to="lane_exit_A" type="small_truck" /><trip id="r_alt_round_5_2_small_truck.0" depart="8855.96" from="lane_entry_B" to="lane_exit_A" type="small_truck" /><trip id="r_tun_kla_A______1_car_aggr4.1" depart="9014.03" from="lane_entry_D" to="lane_exit_C" type="car_aggr4" /><trip id="r_tun_kla_A______2_car_aggr4.0" depart="9043.88" from="lane_entry_D" to="lane_exit_C" type="car_aggr4" /><trip id="r_alt_ers_1_2_car_aggr1.0" depart="9238.72" from="lane_entry_A" to="lane_exit_D" type="car_aggr1" /><trip id="r_alt_ers_1_2_car_aggr5.1" depart="9271.82" from="lane_entry_A" to="lane_exit_D" type="car_aggr5" /><trip id="r_sus_kla_A______2_car_aggr5.0" depart="9318.4" from="lane_entry_D" to="lane_exit_C" type="car_aggr5" /><trip id="r_alt_ers_1_2_car_aggr4.0" depart="9466.66" from="lane_entry_A" to="lane_exit_D" type="car_aggr4" /><trip id="r_tun_kla_A______2_small_truck.0" depart="9539.86" from="lane_entry_D" to="lane_exit_C" type="small_truck" /><trip id="r_alt_ers_1_2_motorbike.0" depart="9619.31" from="lane_entry_A" to="lane_exit_D" type="motorbike" /><trip id="r_kla_fur_A______2_car_aggr3.0" depart="9681.31" from="lane_entry_C" to="lane_exit_D" type="car_aggr3" /><trip id="r_tun_kla_A______2_small_truck.1" depart="9722.25" from="lane_entry_D" to="lane_exit_C" type="small_truck" /><trip id="r_got_luz_KS_2_car_aggr4.0" depart="9793.37" from="lane_entry_D" to="lane_exit_A" type="car_aggr4" /><trip id="r_sus_kla_A______2_car_aggr1.0" depart="9942.9" from="lane_entry_D" to="lane_exit_C" type="car_aggr1" /><trip id="r_kla_tun_A______2_car_aggr3.0" depart="9993.5" from="lane_entry_C" to="lane_exit_D" type="car_aggr3" /><trip id="r_luz_tun_aAl_eEr_2_motorbike.0" depart="10120.05" from="lane_entry_A" to="lane_exit_D" type="motorbike" /><trip id="r_alt_round_5_2_motorbike.0" depart="10237.86" from="lane_entry_B" to="lane_exit_A" type="motorbike" /><trip id="r_tun_kla_A______2_car_aggr5.0" depart="10447.01" from="lane_entry_D" to="lane_exit_C" type="car_aggr5" /><trip id="r_alt_ers_1_2_car_aggr2.0" depart="10477.03" from="lane_entry_A" to="lane_exit_D" type="car_aggr2" /><trip id="r_tun_kla_A______2_car_aggr1.0" depart="10495.61" from="lane_entry_D" to="lane_exit_C" type="car_aggr1" /><trip id="r_alt_round3_2_motorbike.0" depart="10502.81" from="lane_entry_B" to="lane_exit_B" type="motorbike" /><trip id="r_kla_tun_A______2_car_aggr3.1" depart="10538.87" from="lane_entry_C" to="lane_exit_D" type="car_aggr3" /><trip id="r_tun_kla_A______2_motorbike.0" depart="10622.59" from="lane_entry_D" to="lane_exit_C" type="motorbike" /><trip id="r_tun_kla_A______2_car_aggr4.1" depart="10626.33" from="lane_entry_D" to="lane_exit_C" type="car_aggr4" /><trip id="r_alt_round_5_2_car_aggr1.0" depart="10738.77" from="lane_entry_B" to="lane_exit_A" type="car_aggr1" /><trip id="r_alt_ers_1_2_car_aggr5.2" depart="10772.28" from="lane_entry_A" to="lane_exit_D" type="car_aggr5" /><trip id="r_kla_fur_A______2_car_aggr4.0" depart="10829.59" from="lane_entry_C" to="lane_exit_D" type="car_aggr4" /><trip id="r_alt_round_5_3_car_aggr2.0" depart="11406.7" from="lane_entry_B" to="lane_exit_A" type="car_aggr2" /><trip id="r_luz_tun_aAl_eEr_2_car_aggr3.0" depart="11512.82" from="lane_entry_A" to="lane_exit_D" type="car_aggr3" /><trip id="r_luz_tun_aAl_eEr_2_car_aggr5.1" depart="11541.85" from="lane_entry_A" to="lane_exit_D" type="car_aggr5" /><trip id="r_tun_kla_A______2_big_truck.0" depart="11730.06" from="lane_entry_D" to="lane_exit_C" type="big_truck" /><trip id="r_alt_ers_1_3_car_aggr4.0" depart="11744.16" from="lane_entry_A" to="lane_exit_D" type="car_aggr4" /><trip id="r_alt_ers_1_3_motorbike.0" depart="11748.13" from="lane_entry_A" to="lane_exit_D" type="motorbike" /><trip id="r_got_luz_KS_2_car_aggr4.1" depart="12076.82" from="lane_entry_D" to="lane_exit_A" type="car_aggr4" /><trip id="r_got_luz_KS_2_car_aggr5.0" depart="12080.04" from="lane_entry_D" to="lane_exit_A" type="car_aggr5" /><trip id="r_tun_kla_A______2_car_aggr1.1" depart="12126.11" from="lane_entry_D" to="lane_exit_C" type="car_aggr1" /><trip id="r_alt_round_5_3_car_aggr5.0" depart="12539.69" from="lane_entry_B" to="lane_exit_A" type="car_aggr5" /><trip id="r_got_kla_A______3_car_aggr3.0" depart="12555.86" from="lane_entry_D" to="lane_exit_C" type="car_aggr3" /><trip id="r_got_luz_KS_2_car_aggr5.1" depart="12898.46" from="lane_entry_D" to="lane_exit_A" type="car_aggr5" /><trip id="r_got_luz_KS_2_car_aggr5.2" depart="12901.62" from="lane_entry_D" to="lane_exit_A" type="car_aggr5" /><trip id="r_alt_round_5_3_car_aggr5.1" depart="13111.15" from="lane_entry_B" to="lane_exit_A" type="car_aggr5" /><trip id="r_alt_round4_3_car_aggr5.0" depart="13244.72" from="lane_entry_B" to="lane_exit_B" type="car_aggr5" /><trip id="r_alt_round_5_3_car_aggr4.0" depart="13256.59" from="lane_entry_B" to="lane_exit_A" type="car_aggr4" /><trip id="r_tun_kla_A______3_car_aggr4.0" depart="13278.35" from="lane_entry_D" to="lane_exit_C" type="car_aggr4" /><trip id="r_alt_round_5_3_motorbike.0" depart="13393.57" from="lane_entry_B" to="lane_exit_A" type="motorbike" /><trip id="r_alt_and_1_3_motorbike.0" depart="13460.28" from="lane_entry_B" to="lane_exit_D" type="motorbike" /><trip id="r_alt_ers_1_3_car_aggr2.0" depart="13466.22" from="lane_entry_A" to="lane_exit_D" type="car_aggr2" /><trip id="r_alt_and_1_3_car_aggr4.0" depart="13475.74" from="lane_entry_B" to="lane_exit_D" type="car_aggr4" /><trip id="r_got_kla_A______3_motorbike.0" depart="13481.07" from="lane_entry_D" to="lane_exit_C" type="motorbike" /><trip id="r_alt_ers_1_3_car_aggr5.0" depart="13519.94" from="lane_entry_A" to="lane_exit_D" type="car_aggr5" /><trip id="r_tun_kla_A______3_motorbike.0" depart="13898.61" from="lane_entry_D" to="lane_exit_C" type="motorbike" /><trip id="r_alt_round_5_3_car_aggr4.1" depart="13975.45" from="lane_entry_B" to="lane_exit_A" type="car_aggr4" /><trip id="r_alt_round_5_3_car_aggr3.0" depart="14136.92" from="lane_entry_B" to="lane_exit_A" type="car_aggr3" /><trip id="r_got_kla_A______3_car_aggr2.0" depart="14157.17" from="lane_entry_D" to="lane_exit_C" type="car_aggr2" /><trip id="r_alt_ers_1_3_big_truck.0" depart="14297.02" from="lane_entry_A" to="lane_exit_D" type="big_truck" /><trip id="r_luz_tun_aAl_eEr_3_motorbike.0" depart="14318.02" from="lane_entry_A" to="lane_exit_D" type="motorbike" /><trip id="r_luz_tun_aAl_eEr_3_car_aggr3.0" depart="14322.58" from="lane_entry_A" to="lane_exit_D" type="car_aggr3" /><trip id="r_alt_ers_1_3_car_aggr1.0" depart="14406.2" from="lane_entry_A" to="lane_exit_D" type="car_aggr1" /><trip id="r_tun_kla_A______3_car_aggr1.0" depart="14482.61" from="lane_entry_D" to="lane_exit_C" type="car_aggr1" /><trip id="r_alt_ers_1_4_small_truck.0" depart="14665.4" from="lane_entry_A" to="lane_exit_D" type="small_truck" /><trip id="r_tun_kla_A______3_small_truck.0" depart="14684.55" from="lane_entry_D" to="lane_exit_C" type="small_truck" /><trip id="r_tun_kla_A______3_car_aggr2.0" depart="14775.57" from="lane_entry_D" to="lane_exit_C" type="car_aggr2" /><trip id="r_alt_ers_1_4_car_aggr1.0" depart="14878.43" from="lane_entry_A" to="lane_exit_D" type="car_aggr1" /><trip id="r_tun_kla_A______3_car_aggr4.1" depart="14906.17" from="lane_entry_D" to="lane_exit_C" type="car_aggr4" /><trip id="r_alt_ers_1_4_car_aggr2.0" depart="14924.09" from="lane_entry_A" to="lane_exit_D" type="car_aggr2" /><trip id="r_tun_kla_A______3_car_aggr1.1" depart="15073.15" from="lane_entry_D" to="lane_exit_C" type="car_aggr1" /><trip id="r_ers_alt_1_4_car_aggr5.0" depart="15146.82" from="lane_entry_D" to="lane_exit_B" type="car_aggr5" /><trip id="r_got_kla_A______3_motorbike.1" depart="15222.08" from="lane_entry_D" to="lane_exit_C" type="motorbike" /><trip id="r_tun_kla_A______3_motorbike.1" depart="15280.06" from="lane_entry_D" to="lane_exit_C" type="motorbike" /><trip id="r_alt_round3_4_car_aggr3.0" depart="15552.98" from="lane_entry_B" to="lane_exit_B" type="car_aggr3" /><trip id="r_alt_round_5_4_car_aggr2.0" depart="15602.43" from="lane_entry_B" to="lane_exit_A" type="car_aggr2" /><trip id="r_tun_kla_A______3_car_aggr4.2" depart="15775.21" from="lane_entry_D" to="lane_exit_C" type="car_aggr4" /><trip id="r_got_kla_A______3_car_aggr5.0" depart="15781.68" from="lane_entry_D" to="lane_exit_C" type="car_aggr5" /><trip id="r_got_kla_A______3_car_aggr1.0" depart="15858.49" from="lane_entry_D" to="lane_exit_C" type="car_aggr1" /><trip id="r_ers_alt_1_4_big_truck.0" depart="16083.9" from="lane_entry_D" to="lane_exit_B" type="big_truck" /><trip id="r_alt_ers_1_4_car_aggr2.1" depart="16085.95" from="lane_entry_A" to="lane_exit_D" type="car_aggr2" /><trip id="r_ers_alt_1_4_car_aggr4.0" depart="16147.39" from="lane_entry_D" to="lane_exit_B" type="car_aggr4" /><trip id="r_alt_round3_4_car_aggr2.0" depart="16268.92" from="lane_entry_B" to="lane_exit_B" type="car_aggr2" /><trip id="r_ers_alt_1_4_motorbike.0" depart="16293.76" from="lane_entry_D" to="lane_exit_B" type="motorbike" /><trip id="r_alt_ers_1_4_big_truck.0" depart="16355.9" from="lane_entry_A" to="lane_exit_D" type="big_truck" /><trip id="r_alt_ers_1_4_car_aggr5.0" depart="16388.18" from="lane_entry_A" to="lane_exit_D" type="car_aggr5" /><trip id="r_ers_alt_1_4_car_aggr4.1" depart="16569.38" from="lane_entry_D" to="lane_exit_B" type="car_aggr4" /><trip id="r_ers_alt_1_4_car_aggr5.1" depart="16578.43" from="lane_entry_D" to="lane_exit_B" type="car_aggr5" /><trip id="r_got_luz_KS_4_car_aggr1.0" depart="16701.56" from="lane_entry_D" to="lane_exit_A" type="car_aggr1" /><trip id="r_alt_ers_1_4_car_aggr1.1" depart="16706.89" from="lane_entry_A" to="lane_exit_D" type="car_aggr1" /><trip id="r_luz_tun_aAl_eEr_4_big_truck.0" depart="16798.67" from="lane_entry_A" to="lane_exit_D" type="big_truck" /><trip id="r_tun_kla_A______4_car_aggr3.0" depart="16900.3" from="lane_entry_D" to="lane_exit_C" type="car_aggr3" /><trip id="r_alt_round4_4_car_aggr4.0" depart="16956.86" from="lane_entry_B" to="lane_exit_B" type="car_aggr4" /><trip id="r_ers_alt_1_4_motorbike.1" depart="16968.04" from="lane_entry_D" to="lane_exit_B" type="motorbike" /><trip id="r_luz_tun_aAl_eEr_4_car_aggr3.0" depart="16983.59" from="lane_entry_A" to="lane_exit_D" type="car_aggr3" /><trip id="r_alt_ers_1_4_car_aggr5.1" depart="17204.43" from="lane_entry_A" to="lane_exit_D" type="car_aggr5" /><trip id="r_alt_round_5_4_small_truck.0" depart="17250.98" from="lane_entry_B" to="lane_exit_A" type="small_truck" /><trip id="r_ers_alt_1_4_car_aggr4.2" depart="17318.55" from="lane_entry_D" to="lane_exit_B" type="car_aggr4" /><trip id="r_tun_kla_A______4_small_truck.0" depart="17326.7" from="lane_entry_D" to="lane_exit_C" type="small_truck" /><trip id="r_alt_round_5_4_car_aggr5.0" depart="17359.36" from="lane_entry_B" to="lane_exit_A" type="car_aggr5" /><trip id="r_alt_ers_1_4_car_aggr2.2" depart="17387.43" from="lane_entry_A" to="lane_exit_D" type="car_aggr2" /><trip id="r_luz_tun_aAl_eEr_4_car_aggr2.0" depart="17446.09" from="lane_entry_A" to="lane_exit_D" type="car_aggr2" /><trip id="r_ers_alt_1_4_car_aggr3.0" depart="17702.16" from="lane_entry_D" to="lane_exit_B" type="car_aggr3" /><trip id="r_ers_alt_1_4_car_aggr2.0" depart="18070.24" from="lane_entry_D" to="lane_exit_B" type="car_aggr2" /><trip id="r_luz_tun_aAl_eEr_4_small_truck.0" depart="18356.54" from="lane_entry_A" to="lane_exit_D" type="small_truck" /><trip id="r_ers_alt_1_5_car_aggr4.0" depart="18358.77" from="lane_entry_D" to="lane_exit_B" type="car_aggr4" /><trip id="r_alt_round_5_5_car_aggr5.0" depart="18487.15" from="lane_entry_B" to="lane_exit_A" type="car_aggr5" /><trip id="r_alt_ers_1_5_car_aggr4.0" depart="18561.58" from="lane_entry_A" to="lane_exit_D" type="car_aggr4" /><trip id="r_alt_round_5_5_car_aggr3.0" depart="18754.33" from="lane_entry_B" to="lane_exit_A" type="car_aggr3" /><trip id="r_luz_tun_aAl_eEr_4_car_aggr2.1" depart="18769.84" from="lane_entry_A" to="lane_exit_D" type="car_aggr2" /><trip id="r_alt_ers_1_5_car_aggr3.0" depart="18826.65" from="lane_entry_A" to="lane_exit_D" type="car_aggr3" /><trip id="r_ers_alt_1_5_car_aggr2.0" depart="18929.97" from="lane_entry_D" to="lane_exit_B" type="car_aggr2" /><trip id="r_alt_ers_1_5_big_truck.0" depart="18940.69" from="lane_entry_A" to="lane_exit_D" type="big_truck" /><trip id="r_alt_ers_1_5_small_truck.0" depart="19019.72" from="lane_entry_A" to="lane_exit_D" type="small_truck" /><trip id="r_alt_ers_1_5_car_aggr5.0" depart="19139.8" from="lane_entry_A" to="lane_exit_D" type="car_aggr5" /><trip id="r_alt_ers_1_5_motorbike.0" depart="19223.31" from="lane_entry_A" to="lane_exit_D" type="motorbike" /><trip id="r_ers_alt_1_5_car_aggr5.0" depart="19234.33" from="lane_entry_D" to="lane_exit_B" type="car_aggr5" /><trip id="r_kla_tun_A______5_small_truck.0" depart="19245.06" from="lane_entry_C" to="lane_exit_D" type="small_truck" /><trip id="r_luz_got_aAl_____5_car_aggr3.0" depart="19502.59" from="lane_entry_B" to="lane_exit_D" type="car_aggr3" /><trip id="r_luz_got_aAl_____5_car_aggr4.0" depart="19577.38" from="lane_entry_B" to="lane_exit_D" type="car_aggr4" /><trip id="r_got_luz_KS_4_small_truck.0" depart="19610.02" from="lane_entry_D" to="lane_exit_A" type="small_truck" /><trip id="r_got_luz_KS_4_motorbike.0" depart="19613.9" from="lane_entry_D" to="lane_exit_A" type="motorbike" /><trip id="r_got_luz_KS_4_motorbike.1" depart="19617.44" from="lane_entry_D" to="lane_exit_A" type="motorbike" /><trip id="r_oba_luz_KS_Bf__4_car_aggr4.0" depart="19621.15" from="lane_entry_D" to="lane_exit_A" type="car_aggr4" /><trip id="r_ers_alt_1_5_car_aggr2.1" depart="19626.98" from="lane_entry_D" to="lane_exit_B" type="car_aggr2" /><trip id="r_luz_got_aAl_____5_car_aggr2.0" depart="19642.49" from="lane_entry_B" to="lane_exit_D" type="car_aggr2" /><trip id="r_luz_got_aAl_____5_car_aggr2.1" depart="19722.32" from="lane_entry_B" to="lane_exit_D" type="car_aggr2" /><trip id="r_alt_round_5_5_car_aggr4.0" depart="19771.24" from="lane_entry_B" to="lane_exit_A" type="car_aggr4" /><trip id="r_luz_got_aAl_____5_car_aggr4.1" depart="19798.95" from="lane_entry_B" to="lane_exit_D" type="car_aggr4" /><trip id="r_alt_ers_1_5_car_aggr2.0" depart="19990.87" from="lane_entry_A" to="lane_exit_D" type="car_aggr2" /><trip id="r_luz_got_aAl_____5_car_aggr4.2" depart="19995.74" from="lane_entry_B" to="lane_exit_D" type="car_aggr4" /><trip id="r_luz_got_aAl_____5_car_aggr4.3" depart="19999.58" from="lane_entry_B" to="lane_exit_D" type="car_aggr4" /><trip id="r_kla_fur_A______5_car_aggr4.0" depart="20009.64" from="lane_entry_C" to="lane_exit_D" type="car_aggr4" /><trip id="r_ers_alt_1_5_car_aggr2.2" depart="20015.62" from="lane_entry_D" to="lane_exit_B" type="car_aggr2" /><trip id="r_luz_tun_aAl_eEr_5_small_truck.0" depart="20058.76" from="lane_entry_A" to="lane_exit_D" type="small_truck" /><trip id="r_luz_got_aAl_____5_car_aggr5.0" depart="20073.1" from="lane_entry_B" to="lane_exit_D" type="car_aggr5" /><trip id="r_luz_fur_KS_____5_car_aggr3.0" depart="20090.04" from="lane_entry_B" to="lane_exit_D" type="car_aggr3" /><trip id="r_alt_round4_5_car_aggr2.0" depart="20095.51" from="lane_entry_B" to="lane_exit_B" type="car_aggr2" /><trip id="r_kla_tun_A______5_motorbike.0" depart="20150.76" from="lane_entry_C" to="lane_exit_D" type="motorbike" /><trip id="r_luz_got_aAl_____5_big_truck.0" depart="20172.25" from="lane_entry_B" to="lane_exit_D" type="big_truck" /><trip id="r_luz_got_aAl_____5_car_aggr4.4" depart="20177.0" from="lane_entry_B" to="lane_exit_D" type="car_aggr4" /><trip id="r_ers_alt_1_5_car_aggr2.3" depart="20301.14" from="lane_entry_D" to="lane_exit_B" type="car_aggr2" /><trip id="r_sus_kla_A______5_car_aggr1.0" depart="20307.5" from="lane_entry_D" to="lane_exit_C" type="car_aggr1" /><trip id="r_luz_tun_aAl_eEr_5_motorbike.0" depart="20363.37" from="lane_entry_A" to="lane_exit_D" type="motorbike" /><trip id="r_alt_ers_1_5_car_aggr4.1" depart="20389.5" from="lane_entry_A" to="lane_exit_D" type="car_aggr4" /><trip id="r_luz_tun_aAl_eEr_5_motorbike.1" depart="20456.98" from="lane_entry_A" to="lane_exit_D" type="motorbike" /><trip id="r_luz_got_aAl_____5_car_aggr5.1" depart="20547.15" from="lane_entry_B" to="lane_exit_D" type="car_aggr5" /><trip id="r_luz_got_aAl_____5_car_aggr5.2" depart="20550.94" from="lane_entry_B" to="lane_exit_D" type="car_aggr5" /><trip id="r_luz_got_aAl_____5_car_aggr5.3" depart="20554.68" from="lane_entry_B" to="lane_exit_D" type="car_aggr5" /><trip id="r_luz_got_aAl_____5_motorbike.0" depart="20559.23" from="lane_entry_B" to="lane_exit_D" type="motorbike" /><trip id="r_alt_ers_1_5_car_aggr5.1" depart="20685.64" from="lane_entry_A" to="lane_exit_D" type="car_aggr5" /><trip id="r_alt_round3_5_motorbike.0" depart="20693.92" from="lane_entry_B" to="lane_exit_B" type="motorbike" /><trip id="r_luz_tun_aAl_eEr_5_car_aggr1.0" depart="20712.84" from="lane_entry_A" to="lane_exit_D" type="car_aggr1" /><trip id="r_luz_tun_aAl_eEr_5_car_aggr3.0" depart="20747.13" from="lane_entry_A" to="lane_exit_D" type="car_aggr3" /><trip id="r_luz_tun_aAl_eEr_5_car_aggr5.0" depart="20754.71" from="lane_entry_A" to="lane_exit_D" type="car_aggr5" /><trip id="r_luz_got_aAl_____5_car_aggr2.2" depart="20776.87" from="lane_entry_B" to="lane_exit_D" type="car_aggr2" /><trip id="r_luz_tun_aAl_eEr_5_car_aggr4.0" depart="20978.98" from="lane_entry_A" to="lane_exit_D" type="car_aggr4" /><trip id="r_luz_got_aAl_____5_car_aggr5.4" depart="21016.03" from="lane_entry_B" to="lane_exit_D" type="car_aggr5" /><trip id="r_kla_tun_A______5_car_aggr4.0" depart="21075.67" from="lane_entry_C" to="lane_exit_D" type="car_aggr4" /><trip id="r_luz_got_aAl_____5_car_aggr1.0" depart="21229.36" from="lane_entry_B" to="lane_exit_D" type="car_aggr1" /><trip id="r_oba_luz_KS_Bf__4_car_aggr1.0" depart="21283.95" from="lane_entry_D" to="lane_exit_A" type="car_aggr1" /><trip id="r_oba_luz_KS_Bf__4_car_aggr2.0" depart="21289.26" from="lane_entry_D" to="lane_exit_A" type="car_aggr2" /><trip id="r_got_luz_KS_5_car_aggr3.0" depart="21293.45" from="lane_entry_D" to="lane_exit_A" type="car_aggr3" /><trip id="r_ers_alt_1_5_car_aggr1.0" depart="21312.8" from="lane_entry_D" to="lane_exit_B" type="car_aggr1" /><trip id="r_got_luz_KS_5_car_aggr3.1" depart="21317.09" from="lane_entry_D" to="lane_exit_A" type="car_aggr3" /><trip id="r_ers_alt_1_5_car_aggr5.1" depart="21320.25" from="lane_entry_D" to="lane_exit_B" type="car_aggr5" /><trip id="r_alt_ers_1_5_car_aggr3.1" depart="21350.24" from="lane_entry_A" to="lane_exit_D" type="car_aggr3" /><trip id="r_alt_ers_1_5_motorbike.1" depart="21541.51" from="lane_entry_A" to="lane_exit_D" type="motorbike" /><trip id="r_tun_kla_A______5_car_aggr3.0" depart="21587.25" from="lane_entry_D" to="lane_exit_C" type="car_aggr3" /><trip id="r_luz_tun_aAl_eEr_5_car_aggr4.1" depart="21643.88" from="lane_entry_A" to="lane_exit_D" type="car_aggr4" /><trip id="r_luz_tun_aAl_eEr_5_car_aggr5.1" depart="21647.32" from="lane_entry_A" to="lane_exit_D" type="car_aggr5" /><trip id="r_luz_tun_aAl_eEr_5_car_aggr2.0" depart="21671.41" from="lane_entry_A" to="lane_exit_D" type="car_aggr2" /><trip id="r_alt_round3_5_car_aggr2.0" depart="21735.02" from="lane_entry_B" to="lane_exit_B" type="car_aggr2" /><trip id="r_alt_round_5_5_big_truck.0" depart="21754.56" from="lane_entry_B" to="lane_exit_A" type="big_truck" /><trip id="r_sus_kla_A______5_car_aggr3.0" depart="21765.1" from="lane_entry_D" to="lane_exit_C" type="car_aggr3" /><trip id="r_ers_alt_1_6_small_truck.0" depart="21849.45" from="lane_entry_D" to="lane_exit_B" type="small_truck" /><trip id="r_luz_tun_aAl_eEr_5_car_aggr4.2" depart="21859.83" from="lane_entry_A" to="lane_exit_D" type="car_aggr4" /><trip id="r_luz_got_aAl_____5_car_aggr1.1" depart="21861.78" from="lane_entry_B" to="lane_exit_D" type="car_aggr1" /><trip id="r_luz_tun_aAl_eEr_5_car_aggr5.2" depart="21863.02" from="lane_entry_A" to="lane_exit_D" type="car_aggr5" /><trip id="r_luz_got_aAl_____5_small_truck.0" depart="21868.58" from="lane_entry_B" to="lane_exit_D" type="small_truck" /><trip id="r_luz_got_aAl_____5_car_aggr2.3" depart="21874.21" from="lane_entry_B" to="lane_exit_D" type="car_aggr2" /><trip id="r_luz_fur_KS_____5_motorbike.0" depart="21