<?xml version="1.0" encoding="UTF-8"?>

<!-- generated on 2025-05-13 10:42:00 by Eclipse SUMO netedit Version 1.22.0
<neteditConfiguration xmlns:xsi="http://www.w3.org/2001/XMLSchema-instance" xsi:noNamespaceSchemaLocation="http://sumo.dlr.de/xsd/neteditConfiguration.xsd">

    <input>
        <sumo-net-file value="/home/epsilon/Documents/bachelor_thesis/thesis_2025_eth_cedric_zeiter/simulation/villages/Silenen/osm_original.net.xml"/>
    </input>

    <output>
        <output-file value="/home/epsilon/Documents/bachelor_thesis/thesis_2025_eth_cedric_zeiter/simulation/villages/Silenen/osm_original.net.xml"/>
        <output.street-names value="true"/>
    </output>

    <processing>
        <geometry.min-radius.fix.railways value="false"/>
        <geometry.avoid-overlap value="0"/>
        <geometry.max-grade.fix value="false"/>
        <offset.disable-normalization value="true"/>
        <lefthand value="0"/>
    </processing>

    <junctions>
        <no-turnarounds value="true"/>
        <junctions.corner-detail value="5"/>
        <junctions.limit-turn-speed value="5.50"/>
        <rectangular-lane-cut value="0"/>
    </junctions>

    <pedestrian>
        <walkingareas value="0"/>
    </pedestrian>

</neteditConfiguration>
-->

<net version="1.20" junctionCornerDetail="5" limitTurnSpeed="5.50" avoidOverlap="0" xmlns:xsi="http://www.w3.org/2001/XMLSchema-instance" xsi:noNamespaceSchemaLocation="http://sumo.dlr.de/xsd/net_file.xsd">

    <location netOffset="-455283.56,-5149384.03" convBoundary="18800.73,29927.37,20283.25,34301.47" origBoundary="8.309256,46.497869,8.861170,47.051866" projParameter="+proj=utm +zone=32 +ellps=WGS84 +datum=WGS84 +units=m +no_defs"/>

    <type id="highway.footway" priority="1" numLanes="1" speed="2.78" allow="pedestrian" oneway="1" width="2.00"/>
    <type id="highway.living_street" priority="2" numLanes="1" speed="2.78" disallow="tram rail_urban rail rail_electric rail_fast ship" oneway="0"/>
    <type id="highway.motorway" priority="14" numLanes="2" speed="39.44" allow="private emergency authority army vip passenger hov taxi bus coach delivery truck trailer motorcycle evehicle custom1 custom2" oneway="1"/>
    <type id="highway.motorway_link" priority="9" numLanes="1" speed="22.22" allow="private emergency authority army vip passenger hov taxi bus coach delivery truck trailer motorcycle evehicle custom1 custom2" oneway="1"/>
    <type id="highway.path" priority="1" numLanes="1" speed="5.56" allow="pedestrian bicycle" oneway="0" width="2.00"/>
    <type id="highway.primary" priority="12" numLanes="2" speed="27.78" disallow="tram rail_urban rail rail_electric rail_fast ship" oneway="0"/>
    <type id="highway.residential" priority="3" numLanes="1" speed="13.89" disallow="tram rail_urban rail rail_electric rail_fast ship" oneway="0"/>
    <type id="highway.secondary" priority="11" numLanes="1" speed="27.78" disallow="tram rail_urban rail rail_electric rail_fast ship" oneway="0"/>
    <type id="highway.service" priority="1" numLanes="1" speed="5.56" allow="pedestrian delivery bicycle" oneway="0"/>
    <type id="highway.steps" priority="1" numLanes="1" speed="1.39" allow="pedestrian" oneway="1" width="2.00"/>
    <type id="highway.tertiary" priority="10" numLanes="1" speed="22.22" disallow="tram rail_urban rail rail_electric rail_fast ship" oneway="0"/>
    <type id="highway.track" priority="1" numLanes="1" speed="5.56" allow="pedestrian motorcycle moped bicycle" oneway="0"/>
    <type id="highway.unclassified" priority="4" numLanes="1" speed="13.89" disallow="tram rail_urban rail rail_electric rail_fast ship" oneway="0"/>
    <type id="railway.rail" priority="20" numLanes="1" speed="44.44" allow="rail" oneway="1"/>

    <edge id=":10743327523_0" function="internal">
        <lane id=":10743327523_0_0" index="0" disallow="tram rail_urban rail rail_electric rail_fast ship cable_car subway" speed="19.45" length="0.86" shape="19531.22,31752.55 19531.32,31751.70"/>
    </edge>
    <edge id=":10743327523_1" function="internal">
        <lane id=":10743327523_1_0" index="0" disallow="tram rail_urban rail rail_electric rail_fast ship cable_car subway" speed="19.45" length="0.84" shape="19528.14,31751.33 19528.04,31752.17"/>
    </edge>
    <edge id=":10743327691_0" function="internal">
        <lane id=":10743327691_0_0" index="0" disallow="tram rail_urban rail rail_electric rail_fast ship cable_car subway" speed="12.50" length="0.99" shape="19533.97,32145.83 19533.93,32145.54 19533.92,32145.34 19533.92,32145.14 19533.94,32144.84"/>
    </edge>
    <edge id=":10743327691_1" function="internal">
        <lane id=":10743327691_1_0" index="0" disallow="tram rail_urban rail rail_electric rail_fast ship cable_car subway" speed="12.50" length="0.33" shape="19537.13,32145.05 19537.12,32145.15 19537.12,32145.22 19537.13,32145.29 19537.14,32145.38"/>
    </edge>
    <edge id=":10743327704_0" function="internal">
        <lane id=":10743327704_0_0" index="0" disallow="tram rail_urban rail rail_electric rail_fast ship cable_car subway" speed="15.28" length="0.12" shape="19549.58,30847.35 19549.46,30847.37"/>
    </edge>
    <edge id=":10743327704_1" function="internal">
        <lane id=":10743327704_1_0" index="0" disallow="tram rail_urban rail rail_electric rail_fast ship cable_car subway" speed="15.28" length="0.37" shape="19548.76,30844.25 19549.12,30844.18"/>
    </edge>
    <edge id=":10743327766_0" function="internal">
        <lane id=":10743327766_0_0" index="0" allow="pedestrian bicycle" speed="2.89" length="2.92" width="2.00" shape="19542.03,30842.49 19541.16,30842.24 19540.77,30841.84 19540.86,30841.29 19541.42,30840.59"/>
    </edge>
    <edge id=":10743327782_0" function="internal">
        <lane id=":10743327782_0_0" index="0" disallow="tram rail_urban rail rail_electric rail_fast ship cable_car subway" speed="13.89" length="7.94" shape="19431.35,30628.49 19425.72,30634.08"/>
    </edge>
    <edge id=":10743327782_1" function="internal">
        <lane id=":10743327782_1_0" index="0" disallow="tram rail_urban rail rail_electric rail_fast ship cable_car subway" speed="13.89" length="8.41" shape="19423.45,30631.83 19424.83,30629.72 19425.14,30627.85 19425.47,30625.99 19426.89,30623.91"/>
        <lane id=":10743327782_1_1" index="1" disallow="tram rail_urban rail rail_electric rail_fast ship cable_car subway" speed="13.89" length="8.41" shape="19423.45,30631.83 19429.12,30626.20"/>
    </edge>
    <edge id=":10743464040_0" function="internal">
        <lane id=":10743464040_0_0" index="0" disallow="tram rail_urban rail rail_electric rail_fast ship cable_car subway" speed="13.89" length="5.10" shape="19450.67,30588.11 19447.59,30584.05"/>
    </edge>
    <edge id=":10743464040_1" function="internal">
        <lane id=":10743464040_1_0" index="0" disallow="tram rail_urban rail rail_electric rail_fast ship cable_car subway" speed="13.89" length="5.08" shape="19450.15,30582.13 19453.22,30586.17"/>
    </edge>
    <edge id=":10743464090_0" function="internal">
        <lane id=":10743464090_0_0" index="0" disallow="tram rail_urban rail rail_electric rail_fast ship cable_car subway" speed="13.89" length="0.10" shape="19449.94,31253.76 19449.94,31253.76"/>
    </edge>
    <edge id=":10743464090_1" function="internal">
        <lane id=":10743464090_1_0" index="0" disallow="tram rail_urban rail rail_electric rail_fast ship cable_car subway" speed="13.89" length="0.10" shape="19453.14,31253.52 19453.14,31253.52"/>
    </edge>
    <edge id=":10753381192_0" function="internal">
        <lane id=":10753381192_0_0" index="0" disallow="tram rail_urban rail rail_electric rail_fast ship cable_car subway" speed="13.89" length="25.14" shape="19433.28,32841.97 19429.83,32846.05 19425.18,32851.62 19420.40,32857.05 19416.57,32860.72"/>
    </edge>
    <edge id=":10753381192_1" function="internal">
        <lane id=":10753381192_1_0" index="0" disallow="tram rail_urban rail rail_electric rail_fast ship cable_car subway" speed="13.89" length="24.83" shape="19414.39,32858.35 19418.20,32854.72 19422.90,32849.36 19427.48,32843.87 19430.90,32839.83"/>
    </edge>
    <edge id=":11086678319_0" function="internal">
        <lane id=":11086678319_0_0" index="0" allow="private emergency authority army vip passenger hov taxi bus coach delivery truck trailer motorcycle evehicle custom1 custom2" speed="25.00" length="0.26" shape="19428.57,31609.43 19428.52,31609.17"/>
    </edge>
    <edge id=":11086678324_0" function="internal">
        <lane id=":11086678324_0_0" index="0" allow="private emergency authority army vip passenger hov taxi bus coach delivery truck trailer motorcycle evehicle custom1 custom2" speed="19.45" length="0.10" shape="19301.45,30569.27 19301.45,30569.27"/>
    </edge>
    <edge id=":11099554448_0" function="internal">
        <lane id=":11099554448_0_0" index="0" disallow="tram rail_urban rail rail_electric rail_fast ship cable_car subway" speed="13.89" length="0.10" shape="19988.05,31520.68 19988.05,31520.68"/>
    </edge>
    <edge id=":11099554448_1" function="internal">
        <lane id=":11099554448_1_0" index="0" disallow="tram rail_urban rail rail_electric rail_fast ship cable_car subway" speed="13.89" length="0.10" shape="19990.69,31518.88 19990.69,31518.88"/>
    </edge>
    <edge id=":11101636307_0" function="internal">
        <lane id=":11101636307_0_0" index="0" allow="pedestrian bicycle" speed="5.56" length="13.48" width="2.00" shape="19617.03,30747.49 19615.49,30744.45 19613.30,30742.14 19610.69,30740.09 19607.95,30737.81"/>
    </edge>
    <edge id=":11101636307_1" function="internal">
        <lane id=":11101636307_1_0" index="0" allow="pedestrian bicycle" speed="5.56" length="13.87" width="2.00" shape="19617.03,30747.49 19615.72,30744.17 19614.22,30741.15 19612.78,30738.10 19611.66,30734.73"/>
    </edge>
    <edge id=":11101636307_2" function="internal">
        <lane id=":11101636307_2_0" index="0" allow="pedestrian bicycle" speed="2.89" length="2.92" width="2.00" shape="19617.03,30747.49 19617.29,30746.63 19617.69,30746.24 19618.24,30746.33 19618.94,30746.89"/>
    </edge>
    <edge id=":11101636307_3" function="internal">
        <lane id=":11101636307_3_0" index="0" allow="pedestrian bicycle" speed="5.56" length="14.18" width="2.00" shape="19613.50,30733.82 19614.63,30737.24 19616.09,30740.39 19617.62,30743.52 19618.94,30746.89"/>
    </edge>
    <edge id=":11101636307_4" function="internal">
        <lane id=":11101636307_4_0" index="0" allow="pedestrian bicycle" speed="5.56" length="13.55" width="2.00" shape="19613.50,30733.82 19614.21,30738.50 19613.52,30740.72 19611.43,30740.49 19607.95,30737.81"/>
    </edge>
    <edge id=":11101636307_5" function="internal">
        <lane id=":11101636307_5_0" index="0" allow="pedestrian bicycle" speed="2.91" length="3.00" width="2.00" shape="19613.50,30733.82 19613.38,30734.74 19613.04,30735.19 19612.46,30735.19 19611.66,30734.73"/>
    </edge>
    <edge id=":11101636307_6" function="internal">
        <lane id=":11101636307_6_0" index="0" allow="pedestrian bicycle" speed="4.04" length="5.67" width="2.00" shape="19609.31,30736.35 19610.78,30737.48 19611.66,30737.59 19611.95,30736.67 19611.66,30734.73"/>
    </edge>
    <edge id=":11101636307_7" function="internal">
        <lane id=":11101636307_7_0" index="0" allow="pedestrian bicycle" speed="5.56" length="14.47" width="2.00" shape="19609.31,30736.35 19612.15,30738.76 19614.93,30741.11 19617.32,30743.71 19618.94,30746.89"/>
    </edge>
    <edge id=":11101636307_8" function="internal">
        <lane id=":11101636307_8_0" index="0" allow="pedestrian bicycle" speed="2.89" length="2.92" width="2.00" shape="19609.31,30736.35 19609.52,30737.23 19609.36,30737.76 19608.83,30737.96 19607.95,30737.81"/>
    </edge>
    <edge id=":11104998245_0" function="internal">
        <lane id=":11104998245_0_0" index="0" allow="pedestrian bicycle" speed="5.37" length="4.57" width="2.00" shape="20026.97,31710.99 20026.04,31709.89 20025.10,31709.18 20024.15,31708.86 20023.20,31708.94"/>
    </edge>
    <edge id=":11104998245_1" function="internal">
        <lane id=":11104998245_1_0" index="0" allow="pedestrian bicycle" speed="5.56" length="8.42" width="2.00" shape="20026.97,31710.99 20025.63,31708.67 20025.11,31706.63 20025.42,31704.88 20026.55,31703.41"/>
    </edge>
    <edge id=":11104998245_2" function="internal">
        <lane id=":11104998245_2_0" index="0" allow="pedestrian bicycle" speed="2.89" length="2.92" width="2.00" shape="20026.97,31710.99 20026.94,31710.09 20027.20,31709.60 20027.75,31709.51 20028.60,31709.83"/>
    </edge>
    <edge id=":11104998245_3" function="internal">
        <lane id=":11104998245_3_0" index="0" allow="pedestrian bicycle" speed="4.95" length="4.45" width="2.00" shape="20028.64,31705.84 20027.96,31706.66 20027.73,31707.60 20027.94,31708.66 20028.60,31709.83"/>
    </edge>
    <edge id=":11104998245_4" function="internal">
        <lane id=":11104998245_4_0" index="0" allow="pedestrian motorcycle moped bicycle" speed="5.56" length="6.35" shape="20028.64,31705.84 20027.21,31707.06 20026.16,31707.83 20024.99,31708.38 20023.20,31708.94"/>
    </edge>
    <edge id=":11104998245_5" function="internal">
        <lane id=":11104998245_5_0" index="0" allow="pedestrian motorcycle moped bicycle" speed="3.65" length="4.67" shape="20028.64,31705.84 20027.21,31706.01 20026.38,31705.66 20026.16,31704.80 20026.55,31703.41"/>
    </edge>
    <edge id=":11104998245_6" function="internal">
        <lane id=":11104998245_6_0" index="0" allow="pedestrian motorcycle moped bicycle" speed="5.56" length="4.96" shape="20022.33,31705.86 20023.72,31705.42 20024.63,31704.98 20025.44,31704.37 20026.55,31703.41"/>
    </edge>
    <edge id=":11104998245_7" function="internal">
        <lane id=":11104998245_7_0" index="0" allow="pedestrian bicycle" speed="5.56" length="7.86" width="2.00" shape="20022.33,31705.86 20023.79,31705.80 20025.32,31706.45 20026.93,31707.79 20028.60,31709.83"/>
    </edge>
    <edge id=":11104998245_8" function="internal">
        <lane id=":11104998245_8_0" index="0" allow="pedestrian motorcycle moped bicycle" speed="3.65" length="4.67" shape="20022.33,31705.86 20023.70,31706.30 20024.30,31706.96 20024.14,31707.84 20023.20,31708.94"/>
    </edge>
    <edge id=":11118337124_0" function="internal">
        <lane id=":11118337124_0_0" index="0" allow="pedestrian bicycle" speed="5.56" length="6.76" width="2.00" shape="20069.34,32010.65 20067.33,32010.62 20065.62,32010.92 20064.22,32011.56 20063.12,32012.53"/>
    </edge>
    <edge id=":11118337124_1" function="internal">
        <lane id=":11118337124_1_0" index="0" allow="pedestrian bicycle" speed="5.56" length="7.70" width="2.00" shape="20069.34,32010.65 20067.72,32010.20 20066.35,32009.17 20065.22,32007.57 20064.35,32005.39"/>
    </edge>
    <edge id=":11118337124_2" function="internal">
        <lane id=":11118337124_2_0" index="0" allow="pedestrian bicycle" speed="2.89" length="2.92" width="2.00" shape="20069.34,32010.65 20068.64,32010.09 20068.44,32009.56 20068.74,32009.09 20069.53,32008.66"/>
    </edge>
    <edge id=":11118337124_3" function="internal">
        <lane id=":11118337124_3_0" index="0" allow="pedestrian bicycle" speed="5.56" length="5.34" width="2.00" shape="20066.26,32004.81 20066.88,32006.42 20067.63,32007.60 20068.52,32008.35 20069.53,32008.66"/>
    </edge>
    <edge id=":11118337124_4" function="internal">
        <lane id=":11118337124_4_0" index="0" allow="pedestrian bicycle" speed="5.56" length="8.62" width="2.00" shape="20066.26,32004.81 20066.39,32006.37 20065.91,32008.18 20064.82,32010.23 20063.12,32012.53"/>
    </edge>
    <edge id=":11118337124_5" function="internal">
        <lane id=":11118337124_5_0" index="0" allow="pedestrian bicycle" speed="2.89" length="2.92" width="2.00" shape="20066.26,32004.81 20066.00,32005.67 20065.59,32006.06 20065.04,32005.97 20064.35,32005.39"/>
    </edge>
    <edge id=":11118337124_6" function="internal">
        <lane id=":11118337124_6_0" index="0" allow="pedestrian bicycle" speed="5.56" length="4.64" width="2.00" shape="20062.92,32009.63 20063.76,32008.47 20064.27,32007.37 20064.47,32006.35 20064.35,32005.39"/>
    </edge>
    <edge id=":11118337124_7" function="internal">
        <lane id=":11118337124_7_0" index="0" allow="pedestrian bicycle" speed="5.56" length="6.86" width="2.00" shape="20062.92,32009.63 20063.80,32009.02 20065.19,32008.65 20067.10,32008.53 20069.53,32008.66"/>
    </edge>
    <edge id=":11118337124_8" function="internal">
        <lane id=":11118337124_8_0" index="0" allow="pedestrian bicycle" speed="3.30" length="4.25" width="2.00" shape="20062.92,32009.63 20064.06,32010.28 20064.47,32010.99 20064.16,32011.74 20063.12,32012.53"/>
    </edge>
    <edge id=":11118337133_0" function="internal">
        <lane id=":11118337133_0_0" index="0" allow="pedestrian bicycle" speed="2.89" length="2.92" width="2.00" shape="19947.52,31949.30 19947.51,31948.40 19947.79,31947.91 19948.34,31947.84 19949.17,31948.18"/>
    </edge>
    <edge id=":11118337135_0" function="internal">
        <lane id=":11118337135_0_0" index="0" allow="pedestrian bicycle" speed="3.98" length="4.47" width="2.00" shape="19951.88,31955.72 19950.98,31954.71 19950.15,31954.42 19949.39,31954.87 19948.71,31956.04"/>
    </edge>
    <edge id=":11118337135_1" function="internal">
        <lane id=":11118337135_1_0" index="0" allow="pedestrian bicycle" speed="5.56" length="7.49" width="2.00" shape="19951.88,31955.72 19947.67,31949.53"/>
    </edge>
    <edge id=":11118337135_2" function="internal">
        <lane id=":11118337135_2_0" index="0" allow="pedestrian bicycle" speed="2.89" length="2.92" width="2.00" shape="19951.88,31955.72 19951.87,31954.82 19952.15,31954.33 19952.70,31954.26 19953.54,31954.59"/>
    </edge>
    <edge id=":11118337135_3" function="internal">
        <lane id=":11118337135_3_0" index="0" allow="pedestrian bicycle" speed="5.56" length="7.48" width="2.00" shape="19949.33,31948.41 19953.54,31954.59"/>
    </edge>
    <edge id=":11118337135_4" function="internal">
        <lane id=":11118337135_4_0" index="0" allow="pedestrian bicycle" speed="5.56" length="7.93" width="2.00" shape="19949.33,31948.41 19949.89,31949.77 19949.97,31951.50 19949.58,31953.59 19948.71,31956.04"/>
    </edge>
    <edge id=":11118337135_5" function="internal">
        <lane id=":11118337135_5_0" index="0" allow="pedestrian bicycle" speed="2.89" length="2.92" width="2.00" shape="19949.33,31948.41 19949.33,31949.31 19949.06,31949.80 19948.51,31949.87 19947.67,31949.53"/>
    </edge>
    <edge id=":11118337135_6" function="internal">
        <lane id=":11118337135_6_0" index="0" allow="pedestrian bicycle" speed="5.56" length="5.97" width="2.00" shape="19946.87,31955.27 19947.59,31953.31 19947.96,31951.70 19947.99,31950.44 19947.67,31949.53"/>
    </edge>
    <edge id=":11118337135_7" function="internal">
        <lane id=":11118337135_7_0" index="0" allow="pedestrian bicycle" speed="5.50" length="9.40" width="2.00" shape="19946.87,31955.27 19948.30,31952.80 19949.89,31951.86 19951.64,31952.46 19953.54,31954.59"/>
    </edge>
    <edge id=":11118337135_8" function="internal">
        <lane id=":11118337135_8_0" index="0" allow="pedestrian bicycle" speed="2.89" length="2.92" width="2.00" shape="19946.87,31955.27 19947.62,31954.77 19948.17,31954.73 19948.54,31955.16 19948.71,31956.04"/>
    </edge>
    <edge id=":11118337147_0" function="internal">
        <lane id=":11118337147_0_0" index="0" allow="pedestrian bicycle" speed="2.89" length="2.92" width="2.00" shape="19941.28,32081.35 19940.78,32082.09 19940.27,32082.34 19939.78,32082.09 19939.28,32081.33"/>
    </edge>
    <edge id=":11118337152_0" function="internal">
        <lane id=":11118337152_0_0" index="0" allow="pedestrian bicycle" speed="5.56" length="3.96" width="2.00" shape="20048.09,31839.45 20046.88,31839.09 20045.84,31838.93 20044.96,31838.97 20044.24,31839.23"/>
    </edge>
    <edge id=":11118337152_1" function="internal">
        <lane id=":11118337152_1_0" index="0" allow="pedestrian bicycle" speed="5.56" length="6.32" width="2.00" shape="20042.66,31836.45 20043.49,31836.27 20044.78,31836.39 20046.55,31836.83 20048.78,31837.58"/>
    </edge>
    <edge id=":11118337152_2" function="internal">
        <lane id=":11118337152_2_0" index="0" allow="pedestrian motorcycle moped bicycle" speed="3.65" length="1.44" shape="20042.66,31836.45 20044.10,31836.55"/>
    </edge>
    <edge id=":11118337152_3" function="internal">
        <lane id=":11118337152_3_0" index="0" allow="pedestrian motorcycle moped bicycle" speed="3.65" length="3.23" shape="20044.10,31836.55 20044.84,31837.05 20044.89,31837.94 20044.24,31839.23"/>
    </edge>
    <edge id=":11118337153_0" function="internal">
        <lane id=":11118337153_0_0" index="0" allow="pedestrian bicycle" speed="2.89" length="2.92" width="2.00" shape="20053.60,31839.34 20054.14,31840.07 20054.20,31840.62 20053.79,31841.01 20052.92,31841.22"/>
    </edge>
    <edge id=":11118337158_0" function="internal">
        <lane id=":11118337158_0_0" index="0" allow="pedestrian bicycle" speed="5.07" length="4.75" width="2.00" shape="20108.65,31836.66 20107.85,31835.94 20106.88,31835.68 20105.72,31835.88 20104.38,31836.54"/>
    </edge>
    <edge id=":11118337158_1" function="internal">
        <lane id=":11118337158_1_0" index="0" disallow="tram rail_urban rail rail_electric rail_fast ship cable_car subway" speed="13.89" length="7.02" shape="20108.65,31836.66 20104.46,31831.04"/>
    </edge>
    <edge id=":11118337158_2" function="internal">
        <lane id=":11118337158_2_0" index="0" disallow="tram rail_urban rail rail_electric rail_fast ship cable_car subway" speed="13.89" length="7.02" shape="20107.02,31829.12 20111.22,31834.75"/>
    </edge>
    <edge id=":11118337158_3" function="internal">
        <lane id=":11118337158_3_0" index="0" allow="pedestrian bicycle" speed="6.34" length="2.46" width="2.00" shape="20107.02,31829.12 20107.96,31831.07 20107.94,31831.37"/>
    </edge>
    <edge id=":11118337158_7" function="internal">
        <lane id=":11118337158_7_0" index="0" allow="pedestrian bicycle" speed="6.34" length="6.63" width="2.00" shape="20107.94,31831.37 20107.83,31832.95 20106.64,31834.77 20104.38,31836.54"/>
    </edge>
    <edge id=":11118337158_4" function="internal">
        <lane id=":11118337158_4_0" index="0" allow="pedestrian bicycle" speed="4.57" length="4.60" width="2.00" shape="20103.32,31834.84 20104.41,31833.97 20104.96,31833.04 20104.98,31832.07 20104.46,31831.04"/>
    </edge>
    <edge id=":11118337158_5" function="internal">
        <lane id=":11118337158_5_0" index="0" allow="pedestrian bicycle" speed="6.48" length="8.74" width="2.00" shape="20103.32,31834.84 20105.86,31833.56 20108.02,31833.13 20109.80,31833.52 20111.22,31834.75"/>
    </edge>
    <edge id=":11118337158_6" function="internal">
        <lane id=":11118337158_6_0" index="0" allow="pedestrian bicycle" speed="2.89" length="2.92" width="2.00" shape="20103.32,31834.84 20104.22,31834.87 20104.70,31835.16 20104.75,31835.71 20104.38,31836.54"/>
    </edge>
    <edge id=":11118337162_0" function="internal">
        <lane id=":11118337162_0_0" index="0" allow="pedestrian bicycle" speed="2.89" length="2.92" width="2.00" shape="20066.60,31854.43 20065.71,31854.31 20065.26,31853.97 20065.27,31853.42 20065.72,31852.63"/>
    </edge>
    <edge id=":11118337164_0" function="internal">
        <lane id=":11118337164_0_0" index="0" allow="pedestrian motorcycle moped bicycle" speed="5.56" length="7.83" shape="19881.10,31827.71 19876.21,31821.58"/>
    </edge>
    <edge id=":11118337164_1" function="internal">
        <lane id=":11118337164_1_0" index="0" allow="pedestrian bicycle" speed="5.56" length="11.03" width="2.00" shape="19881.10,31827.71 19879.54,31825.10 19879.61,31822.99 19881.32,31821.37 19884.66,31820.23"/>
    </edge>
    <edge id=":11118337164_2" function="internal">
        <lane id=":11118337164_2_0" index="0" allow="pedestrian motorcycle moped bicycle" speed="3.65" length="4.67" shape="19881.10,31827.71 19880.94,31826.27 19881.30,31825.45 19882.17,31825.25 19883.55,31825.66"/>
    </edge>
    <edge id=":11118337164_3" function="internal">
        <lane id=":11118337164_3_0" index="0" allow="pedestrian bicycle" speed="4.27" length="5.06" width="2.00" shape="19885.08,31822.19 19883.58,31822.71 19882.82,31823.46 19882.82,31824.44 19883.55,31825.66"/>
    </edge>
    <edge id=":11118337164_4" function="internal">
        <lane id=":11118337164_4_0" index="0" allow="pedestrian bicycle" speed="5.56" length="9.24" width="2.00" shape="19885.08,31822.19 19881.78,31822.74 19879.21,31822.82 19877.35,31822.43 19876.21,31821.58"/>
    </edge>
    <edge id=":11118337164_5" function="internal">
        <lane id=":11118337164_5_0" index="0" allow="pedestrian bicycle" speed="2.89" length="2.92" width="2.00" shape="19885.08,31822.19 19884.24,31821.86 19883.89,31821.42 19884.03,31820.88 19884.66,31820.23"/>
    </edge>
    <edge id=":11118337164_6" function="internal">
        <lane id=":11118337164_6_0" index="0" allow="pedestrian bicycle" speed="5.56" length="6.13" width="2.00" shape="19878.81,31819.71 19879.59,31820.32 19880.82,31820.61 19882.52,31820.58 19884.66,31820.23"/>
    </edge>
    <edge id=":11118337164_7" function="internal">
        <lane id=":11118337164_7_0" index="0" allow="pedestrian motorcycle moped bicycle" speed="5.56" length="7.61" shape="19878.81,31819.71 19883.55,31825.66"/>
    </edge>
    <edge id=":11118337164_8" function="internal">
        <lane id=":11118337164_8_0" index="0" allow="pedestrian motorcycle moped bicycle" speed="3.65" length="4.67" shape="19878.81,31819.71 19878.86,31821.16 19878.44,31821.95 19877.56,31822.09 19876.21,31821.58"/>
    </edge>
    <edge id=":11118337166_0" function="internal">
        <lane id=":11118337166_0_0" index="0" allow="pedestrian bicycle" speed="2.89" length="2.92" width="2.00" shape="19940.40,31795.60 19941.29,31795.70 19941.75,31796.03 19941.76,31796.59 19941.32,31797.38"/>
    </edge>
    <edge id=":11202545416_0" function="internal">
        <lane id=":11202545416_0_0" index="0" allow="pedestrian delivery bicycle" speed="5.56" length="24.70" shape="19718.85,33916.35 19715.93,33920.73 19712.16,33926.74 19708.51,33932.81 19705.93,33937.40"/>
    </edge>
    <edge id=":11202545416_1" function="internal">
        <lane id=":11202545416_1_0" index="0" allow="pedestrian bicycle" speed="5.56" length="24.68" width="2.00" shape="19718.85,33916.35 19715.42,33920.34 19710.39,33925.33 19705.12,33930.06 19700.94,33933.24"/>
    </edge>
    <edge id=":11202545416_2" function="internal">
        <lane id=":11202545416_2_0" index="0" allow="pedestrian delivery bicycle" speed="3.65" length="4.67" shape="19718.85,33916.35 19717.50,33916.86 19716.62,33916.72 19716.20,33915.93 19716.25,33914.49"/>
    </edge>
    <edge id=":11202545416_3" function="internal">
        <lane id=":11202545416_3_0" index="0" allow="pedestrian bicycle" speed="5.56" length="23.71" width="2.00" shape="19699.87,33931.55 19703.81,33928.34 19708.56,33923.55 19713.06,33918.50 19716.25,33914.49"/>
    </edge>
    <edge id=":11202545416_4" function="internal">
        <lane id=":11202545416_4_0" index="0" allow="pedestrian bicycle" speed="5.56" length="17.95" width="2.00" shape="19699.87,33931.55 19705.28,33928.78 19708.09,33928.83 19708.31,33931.70 19705.93,33937.40"/>
    </edge>
    <edge id=":11202545416_5" function="internal">
        <lane id=":11202545416_5_0" index="0" allow="pedestrian bicycle" speed="2.89" length="2.92" width="2.00" shape="19699.87,33931.55 19700.77,33931.57 19701.25,33931.86 19701.31,33932.42 19700.94,33933.24"/>
    </edge>
    <edge id=":11202545416_6" function="internal">
        <lane id=":11202545416_6_0" index="0" allow="pedestrian bicycle" speed="4.66" length="7.52" width="2.00" shape="19703.31,33935.53 19704.43,33933.18 19704.41,33932.02 19703.24,33932.04 19700.94,33933.24"/>
    </edge>
    <edge id=":11202545416_7" function="internal">
        <lane id=":11202545416_7_0" index="0" allow="pedestrian delivery bicycle" speed="5.56" length="24.70" shape="19703.31,33935.53 19705.97,33930.98 19709.62,33924.91 19713.35,33918.88 19716.25,33914.49"/>
    </edge>
    <edge id=":11202545416_8" function="internal">
        <lane id=":11202545416_8_0" index="0" allow="pedestrian delivery bicycle" speed="3.68" length="4.71" shape="19703.31,33935.53 19704.67,33935.01 19705.56,33935.15 19705.98,33935.95 19705.93,33937.40"/>
    </edge>
    <edge id=":11202545430_0" function="internal">
        <lane id=":11202545430_0_0" index="0" allow="pedestrian bicycle" speed="5.56" length="7.17" width="2.00" shape="19626.94,33973.71 19627.13,33966.55"/>
    </edge>
    <edge id=":11202545430_1" function="internal">
        <lane id=":11202545430_1_0" index="0" allow="pedestrian bicycle" speed="5.56" length="7.39" width="2.00" shape="19626.94,33973.71 19627.23,33971.82 19628.11,33970.41 19629.57,33969.50 19631.62,33969.07"/>
    </edge>
    <edge id=":11202545430_2" function="internal">
        <lane id=":11202545430_2_0" index="0" allow="pedestrian bicycle" speed="2.89" length="2.92" width="2.00" shape="19626.94,33973.71 19627.44,33972.96 19627.94,33972.71 19628.44,33972.96 19628.94,33973.71"/>
    </edge>
    <edge id=":11202545430_3" function="internal">
        <lane id=":11202545430_3_0" index="0" allow="pedestrian bicycle" speed="4.70" length="4.34" width="2.00" shape="19631.78,33971.07 19630.54,33971.31 19629.65,33971.84 19629.12,33972.64 19628.94,33973.71"/>
    </edge>
    <edge id=":11202545430_4" function="internal">
        <lane id=":11202545430_4_0" index="0" allow="pedestrian bicycle" speed="5.56" length="7.63" width="2.00" shape="19631.78,33971.07 19629.65,33970.93 19628.17,33970.13 19627.33,33968.67 19627.13,33966.55"/>
    </edge>
    <edge id=":11202545430_5" function="internal">