<?xml version="1.0" encoding="UTF-8"?>

<!-- generated on 2025-05-11 23:05:49 by Eclipse SUMO netedit Version 1.23.1
-->

<additional xmlns:xsi="http://www.w3.org/2001/XMLSchema-instance" xsi:noNamespaceSchemaLocation="http://sumo.dlr.de/xsd/additional_file.xsd">
    <!-- Shapes -->
    <poly id="po_0" color="red" fill="0" layer="0.00" shape="18900.000000,34300.000000 18900.000000,29900.000000 19900.000000,29900.000000 20000.000000,29900.000000 20100.000000,29900.000000 20100.000000,34300.000000 18900.000000,34300.000000"/>
    <poi id="poi_0" color="255,0,225" layer="202.00" x="19174.00" y="34270.15" width="20.00" height="10.00"/>
    <poi id="poi_1" color="24,255,0" layer="202.00" x="19119.26" y="34270.37" width="20.00" height="10.00"/>
    <poi id="poi_2" color="24,255,0" layer="202.00" x="19315.47" y="30554.34" width="20.00" height="10.00"/>
    <poi id="poi_3" color="255,0,236" layer="202.00" x="19362.13" y="30440.87" width="20.00" height="10.00"/>
    <poi id="poi_4" color="0,255,33" layer="202.00" x="19256.71" y="29921.38" width="20.00" height="10.00"/>
    <poi id="poi_5" color="255,0,236" layer="202.00" x="19240.32" y="29949.52" width="20.00" height="10.00"/>
</additional>
