<?xml version="1.0" encoding="UTF-8"?>

<!-- generated on 2025-05-13 10:59:31 by Eclipse SUMO netedit Version 1.22.0
<neteditConfiguration xmlns:xsi="http://www.w3.org/2001/XMLSchema-instance" xsi:noNamespaceSchemaLocation="http://sumo.dlr.de/xsd/neteditConfiguration.xsd">

    <input>
        <sumocfg-file value="/home/epsilon/Documents/bachelor_thesis/thesis_2025_eth_cedric_zeiter/simulation/villages/Wassen/wassen.sumocfg"/>
        <additional-files value="/home/epsilon/Documents/bachelor_thesis/thesis_2025_eth_cedric_zeiter/simulation/villages/Wassen/wassen.add.xml"/>
        <route-files value="/home/epsilon/Documents/bachelor_thesis/thesis_2025_eth_cedric_zeiter/simulation/villages/Wassen/Erstfeld/demand.rou.xml"/>
        <sumo-net-file value="/home/epsilon/Documents/bachelor_thesis/thesis_2025_eth_cedric_zeiter/simulation/villages/Wassen/osm_original.net.xml"/>
    </input>

    <output>
        <output-file value="/home/epsilon/Documents/bachelor_thesis/thesis_2025_eth_cedric_zeiter/simulation/villages/Wassen/osm_original.net.xml"/>
        <output.street-names value="true"/>
    </output>

    <processing>
        <geometry.min-radius.fix.railways value="false"/>
        <geometry.avoid-overlap value="false"/>
        <geometry.max-grade.fix value="false"/>
        <offset.disable-normalization value="true"/>
        <lefthand value="0"/>
    </processing>

    <junctions>
        <no-turnarounds value="true"/>
        <junctions.corner-detail value="5"/>
        <junctions.limit-turn-speed value="5.50"/>
        <rectangular-lane-cut value="0"/>
    </junctions>

    <pedestrian>
        <walkingareas value="0"/>
    </pedestrian>

</neteditConfiguration>
-->

<net version="1.20" junctionCornerDetail="5" limitTurnSpeed="5.50" avoidOverlap="0" xmlns:xsi="http://www.w3.org/2001/XMLSchema-instance" xsi:noNamespaceSchemaLocation="http://sumo.dlr.de/xsd/net_file.xsd">

    <location netOffset="-455283.56,-5149384.03" convBoundary="13500.43,20951.69,15291.88,24525.68" origBoundary="8.309256,46.497869,8.861170,47.051866" projParameter="+proj=utm +zone=32 +ellps=WGS84 +datum=WGS84 +units=m +no_defs"/>

    <type id="highway.footway" priority="1" numLanes="1" speed="2.78" allow="pedestrian" oneway="1" width="2.00"/>
    <type id="highway.motorway" priority="14" numLanes="2" speed="39.44" allow="private emergency authority army vip passenger hov taxi bus coach delivery truck trailer motorcycle evehicle custom1 custom2" oneway="1"/>
    <type id="highway.motorway_link" priority="9" numLanes="1" speed="22.22" allow="private emergency authority army vip passenger hov taxi bus coach delivery truck trailer motorcycle evehicle custom1 custom2" oneway="1"/>
    <type id="highway.primary" priority="12" numLanes="2" speed="27.78" disallow="tram rail_urban rail rail_electric rail_fast ship" oneway="0"/>
    <type id="highway.residential" priority="3" numLanes="1" speed="13.89" disallow="tram rail_urban rail rail_electric rail_fast ship" oneway="0"/>
    <type id="highway.service" priority="1" numLanes="1" speed="5.56" allow="pedestrian delivery bicycle" oneway="0"/>
    <type id="highway.unclassified" priority="4" numLanes="1" speed="13.89" disallow="tram rail_urban rail rail_electric rail_fast ship" oneway="0"/>

    <edge id=":10665954399_0" function="internal">
        <lane id=":10665954399_0_0" index="0" disallow="tram rail_urban rail rail_electric rail_fast ship cable_car subway" speed="22.22" length="0.31" shape="14350.46,23186.42 14350.28,23186.16"/>
    </edge>
    <edge id=":10665954399_1" function="internal">
        <lane id=":10665954399_1_0" index="0" disallow="tram rail_urban rail rail_electric rail_fast ship cable_car subway" speed="22.22" length="0.28" shape="14352.96,23184.40 14353.11,23184.63"/>
    </edge>
    <edge id=":11086753503_0" function="internal">
        <lane id=":11086753503_0_0" index="0" allow="private emergency authority army vip passenger hov taxi bus coach delivery truck trailer motorcycle evehicle custom1 custom2" speed="33.33" length="8.21" shape="14814.26,23701.68 14812.87,23699.71 14811.61,23698.58 14810.34,23697.45 14808.95,23695.48"/>
        <lane id=":11086753503_0_1" index="1" allow="private emergency authority army vip passenger hov taxi bus coach delivery truck trailer motorcycle evehicle custom1 custom2" speed="33.33" length="8.21" shape="14814.26,23701.68 14813.30,23699.47 14813.00,23697.80 14812.70,23696.13 14811.75,23693.92"/>
        <lane id=":11086753503_0_2" index="2" allow="private emergency authority army vip passenger hov taxi bus coach delivery truck trailer motorcycle evehicle custom1 custom2" speed="33.33" length="8.21" shape="14817.05,23700.12 14816.10,23697.91 14815.79,23696.24 14815.49,23694.57 14814.54,23692.36"/>
    </edge>
    <edge id=":11086759306_0" function="internal">
        <lane id=":11086759306_0_0" index="0" allow="private emergency authority army vip passenger hov taxi bus coach delivery truck trailer motorcycle evehicle custom1 custom2" speed="33.33" length="8.21" shape="14773.40,23625.34 14772.01,23623.37 14770.75,23622.24 14769.49,23621.11 14768.10,23619.14"/>
        <lane id=":11086759306_0_1" index="1" allow="private emergency authority army vip passenger hov taxi bus coach delivery truck trailer motorcycle evehicle custom1 custom2" speed="33.33" length="8.21" shape="14776.20,23623.78 14774.81,23621.81 14773.54,23620.68 14772.28,23619.55 14770.89,23617.58"/>
    </edge>
    <edge id=":11086759325_0" function="internal">
        <lane id=":11086759325_0_0" index="0" allow="private emergency authority army vip passenger hov taxi bus coach delivery truck trailer motorcycle evehicle custom1 custom2" speed="33.33" length="8.21" shape="14530.99,23387.91 14528.90,23386.69 14527.29,23386.19 14525.67,23385.68 14523.59,23384.47"/>
        <lane id=":11086759325_0_1" index="1" allow="private emergency authority army vip passenger hov taxi bus coach delivery truck trailer motorcycle evehicle custom1 custom2" speed="33.33" length="8.21" shape="14532.88,23385.32 14530.80,23384.11 14529.18,23383.60 14527.56,23383.10 14525.48,23381.88"/>
    </edge>
    <edge id=":11086759326_0" function="internal">
        <lane id=":11086759326_0_0" index="0" allow="private emergency authority army vip passenger hov taxi bus coach delivery truck trailer motorcycle evehicle custom1 custom2" speed="33.33" length="8.21" shape="14413.04,23293.26 14411.09,23291.82 14409.54,23291.15 14407.98,23290.46 14406.05,23289.02"/>
        <lane id=":11086759326_0_1" index="1" allow="private emergency authority army vip passenger hov taxi bus coach delivery truck trailer motorcycle evehicle custom1 custom2" speed="33.33" length="8.21" shape="14413.04,23293.26 14411.43,23291.46 14410.62,23289.97 14409.81,23288.48 14408.22,23286.67"/>
        <lane id=":11086759326_0_2" index="2" allow="private emergency authority army vip passenger hov taxi bus coach delivery truck trailer motorcycle evehicle custom1 custom2" speed="33.33" length="8.21" shape="14415.19,23290.89 14413.59,23289.10 14412.79,23287.61 14411.98,23286.12 14410.39,23284.32"/>
    </edge>
    <edge id=":11086759332_0" function="internal">
        <lane id=":11086759332_0_0" index="0" disallow="tram rail_urban rail rail_electric rail_fast ship cable_car subway" speed="18.05" length="0.29" shape="14275.86,23406.86 14275.62,23406.70"/>
    </edge>
    <edge id=":11086759332_1" function="internal">
        <lane id=":11086759332_1_0" index="0" disallow="tram rail_urban rail rail_electric rail_fast ship cable_car subway" speed="18.05" length="0.31" shape="14277.37,23404.02 14277.62,23404.19"/>
    </edge>
    <edge id=":11086759348_0" function="internal">
        <lane id=":11086759348_0_0" index="0" disallow="tram rail_urban rail rail_electric rail_fast ship cable_car subway" speed="18.05" length="0.30" shape="14042.55,22971.76 14042.55,22972.06"/>
    </edge>
    <edge id=":11086759348_1" function="internal">
        <lane id=":11086759348_1_0" index="0" disallow="tram rail_urban rail rail_electric rail_fast ship cable_car subway" speed="18.05" length="0.19" shape="14039.35,22971.96 14039.35,22971.77"/>
    </edge>
    <edge id=":11091327854_0" function="internal">
        <lane id=":11091327854_0_0" index="0" disallow="tram rail_urban rail rail_electric rail_fast ship cable_car subway" speed="4.24" length="1.25" shape="13838.22,22254.57 13837.94,22254.81 13837.77,22255.01 13837.68,22255.25 13837.62,22255.61"/>
    </edge>
    <edge id=":11091327854_1" function="internal">
        <lane id=":11091327854_1_0" index="0" disallow="tram rail_urban rail rail_electric rail_fast ship cable_car subway" speed="6.72" length="3.75" shape="13834.45,22255.19 13834.63,22254.11 13834.90,22253.38 13835.39,22252.77 13836.23,22252.06"/>
    </edge>
    <edge id=":11091327954_0" function="internal">
        <lane id=":11091327954_0_0" index="0" disallow="tram rail_urban rail rail_electric rail_fast ship cable_car subway" speed="22.22" length="0.30" shape="13652.83,21222.62 13652.70,21222.34"/>
    </edge>
    <edge id=":11091327954_1" function="internal">
        <lane id=":11091327954_1_0" index="0" disallow="tram rail_urban rail rail_electric rail_fast ship cable_car subway" speed="3.65" length="2.34" shape="13652.83,21222.62 13653.04,21221.19 13653.58,21220.48"/>
    </edge>
    <edge id=":11091327954_4" function="internal">
        <lane id=":11091327954_4_0" index="0" disallow="tram rail_urban rail rail_electric rail_fast ship cable_car subway" speed="3.65" length="2.34" shape="13653.58,21220.48 13654.48,21220.50 13655.72,21221.23"/>
    </edge>
    <edge id=":11091327954_2" function="internal">
        <lane id=":11091327954_2_0" index="0" disallow="tram rail_urban rail rail_electric rail_fast ship cable_car subway" speed="22.22" length="0.30" shape="13655.59,21220.97 13655.72,21221.23"/>
    </edge>
    <edge id=":11091327954_3" function="internal">
        <lane id=":11091327954_3_0" index="0" disallow="tram rail_urban rail rail_electric rail_fast ship cable_car subway" speed="3.65" length="2.34" shape="13655.59,21220.97 13655.38,21222.39 13654.83,21223.10"/>
    </edge>
    <edge id=":11091327954_5" function="internal">
        <lane id=":11091327954_5_0" index="0" disallow="tram rail_urban rail rail_electric rail_fast ship cable_car subway" speed="3.65" length="2.34" shape="13654.83,21223.10 13653.94,21223.08 13652.70,21222.34"/>
    </edge>
    <edge id=":11091327955_0" function="internal">
        <lane id=":11091327955_0_0" index="0" disallow="tram rail_urban rail rail_electric rail_fast ship cable_car subway" speed="22.22" length="0.84" shape="13687.83,20990.52 13687.78,20990.76 13687.74,20990.93 13687.68,20991.09 13687.59,20991.32"/>
    </edge>
    <edge id=":11091327955_1" function="internal">
        <lane id=":11091327955_1_0" index="0" disallow="tram rail_urban rail rail_electric rail_fast ship cable_car subway" speed="3.65" length="2.34" shape="13687.83,20990.52 13686.81,20991.53 13685.94,20991.76"/>
    </edge>
    <edge id=":11091327955_4" function="internal">
        <lane id=":11091327955_4_0" index="0" disallow="tram rail_urban rail rail_electric rail_fast ship cable_car subway" speed="3.65" length="2.34" shape="13685.94,20991.76 13685.24,20991.21 13684.70,20989.87"/>
    </edge>
    <edge id=":11091327955_2" function="internal">
        <lane id=":11091327955_2_0" index="0" disallow="tram rail_urban rail rail_electric rail_fast ship cable_car subway" speed="22.22" length="0.28" shape="13684.62,20990.14 13684.65,20990.06 13684.67,20990.01 13684.68,20989.95 13684.70,20989.87"/>
    </edge>
    <edge id=":11091327955_3" function="internal">
        <lane id=":11091327955_3_0" index="0" disallow="tram rail_urban rail rail_electric rail_fast ship cable_car subway" speed="3.65" length="2.34" shape="13684.62,20990.14 13685.80,20989.32 13686.69,20989.24"/>
    </edge>
    <edge id=":11091327955_5" function="internal">
        <lane id=":11091327955_5_0" index="0" disallow="tram rail_urban rail rail_electric rail_fast ship cable_car subway" speed="3.65" length="2.34" shape="13686.69,20989.24 13687.29,20989.91 13687.59,20991.32"/>
    </edge>
    <edge id=":11171825344_0" function="internal">
        <lane id=":11171825344_0_0" index="0" disallow="tram rail_urban rail rail_electric rail_fast ship cable_car subway" speed="18.05" length="0.10" shape="13975.35,23320.99 13975.34,23320.90"/>
    </edge>
    <edge id=":11171825344_1" function="internal">
        <lane id=":11171825344_1_0" index="0" disallow="tram rail_urban rail rail_electric rail_fast ship cable_car subway" speed="18.05" length="0.10" shape="13978.52,23320.62 13978.51,23320.53"/>
    </edge>
    <edge id=":11248199_0" function="internal">
        <lane id=":11248199_0_0" index="0" allow="private emergency authority army vip passenger hov taxi bus coach delivery truck trailer motorcycle evehicle custom1 custom2" speed="19.45" length="0.35" shape="13749.30,21425.57 13749.26,21425.33"/>
        <lane id=":11248199_0_1" index="1" allow="private emergency authority army vip passenger hov taxi bus coach delivery truck trailer motorcycle evehicle custom1 custom2" speed="19.45" length="0.35" shape="13752.47,21425.10 13752.41,21424.76"/>
        <lane id=":11248199_0_2" index="2" allow="private emergency authority army vip passenger hov taxi bus coach delivery truck trailer motorcycle evehicle custom1 custom2" speed="19.45" length="0.35" shape="13755.63,21424.64 13755.56,21424.19"/>
    </edge>
    <edge id=":11248212_0" function="internal">
        <lane id=":11248212_0_0" index="0" allow="private emergency authority army vip passenger hov taxi bus coach delivery truck trailer motorcycle evehicle custom1 custom2" speed="27.78" length="7.96" shape="14035.18,22810.96 14031.09,22804.09"/>
        <lane id=":11248212_0_1" index="1" allow="private emergency authority army vip passenger hov taxi bus coach delivery truck trailer motorcycle evehicle custom1 custom2" speed="27.78" length="7.96" shape="14037.91,22809.29 14033.86,22802.48"/>
    </edge>
    <edge id=":11466770129_0" function="internal">
        <lane id=":11466770129_0_0" index="0" disallow="tram rail_urban rail rail_electric rail_fast ship cable_car subway" speed="16.67" length="7.35" shape="15168.09,24363.68 15168.01,24356.33"/>
    </edge>
    <edge id=":11466770129_1" function="internal">
        <lane id=":11466770129_1_0" index="0" disallow="tram rail_urban rail rail_electric rail_fast ship cable_car subway" speed="16.67" length="7.18" shape="15171.21,24356.33 15171.28,24363.51"/>
    </edge>
    <edge id=":11466770140_0" function="internal">
        <lane id=":11466770140_0_0" index="0" disallow="tram rail_urban rail rail_electric rail_fast ship cable_car subway" speed="16.67" length="5.00" shape="15130.95,24266.30 15129.85,24265.30 15129.10,24264.62 15128.32,24263.97 15127.14,24263.07"/>
    </edge>
    <edge id=":11466770140_1" function="internal">
        <lane id=":11466770140_1_0" index="0" disallow="tram rail_urban rail rail_electric rail_fast ship cable_car subway" speed="16.67" length="5.29" shape="15129.06,24260.50 15130.30,24261.45 15131.13,24262.14 15131.93,24262.86 15133.09,24263.92"/>
    </edge>
    <edge id=":11514451674_0" function="internal">
        <lane id=":11514451674_0_0" index="0" disallow="tram rail_urban rail rail_electric rail_fast ship cable_car subway" speed="16.67" length="0.30" shape="14783.23,24100.58 14783.13,24100.30"/>
    </edge>
    <edge id=":11514451674_1" function="internal">
        <lane id=":11514451674_1_0" index="0" disallow="tram rail_urban rail rail_electric rail_fast ship cable_car subway" speed="16.67" length="0.30" shape="14786.13,24099.18 14786.23,24099.46"/>
    </edge>
    <edge id=":11514451847_0" function="internal">
        <lane id=":11514451847_0_0" index="0" allow="private emergency authority army vip passenger hov taxi bus coach delivery truck trailer motorcycle evehicle custom1 custom2" speed="33.33" length="3.01" shape="14197.67,23026.63 14199.41,23029.09"/>
    </edge>
    <edge id=":11514451847_1" function="internal">
        <lane id=":11514451847_1_0" index="0" allow="private emergency authority army vip passenger hov taxi bus coach delivery truck trailer motorcycle evehicle custom1 custom2" speed="33.33" length="3.00" shape="14195.04,23028.60 14196.85,23031.00"/>
        <lane id=":11514451847_1_1" index="1" allow="private emergency authority army vip passenger hov taxi bus coach delivery truck trailer motorcycle evehicle custom1 custom2" speed="33.33" length="3.00" shape="14192.48,23030.52 14194.28,23032.92"/>
    </edge>
    <edge id=":11514452024_0" function="internal">
        <lane id=":11514452024_0_0" index="0" disallow="tram rail_urban rail rail_electric rail_fast ship cable_car subway" speed="13.89" length="1.56" shape="14116.44,23248.54 14117.80,23247.79"/>
    </edge>
    <edge id=":11514452024_1" function="internal">
        <lane id=":11514452024_1_0" index="0" disallow="tram rail_urban rail rail_electric rail_fast ship cable_car subway" speed="13.89" length="1.96" shape="14116.20,23245.03 14114.50,23246.00"/>
    </edge>
    <edge id=":11558457003_0" function="internal">
        <lane id=":11558457003_0_0" index="0" disallow="tram rail_urban rail rail_electric rail_fast ship cable_car subway" speed="16.67" length="0.30" shape="13814.69,21870.91 13814.59,21870.62"/>
    </edge>
    <edge id=":11558457003_1" function="internal">
        <lane id=":11558457003_1_0" index="0" disallow="tram rail_urban rail rail_electric rail_fast ship cable_car subway" speed="16.67" length="0.30" shape="13817.64,21869.63 13817.73,21869.91"/>
    </edge>
    <edge id=":1163005824_0" function="internal">
        <lane id=":1163005824_0_0" index="0" disallow="tram rail_urban rail rail_electric rail_fast ship cable_car subway" speed="3.65" length="4.67" shape="14049.45,23378.71 14048.54,23379.83 14047.71,23380.15 14046.95,23379.68 14046.27,23378.41"/>
    </edge>
    <edge id=":1163006249_0" function="internal">
        <lane id=":1163006249_0_0" index="0" disallow="tram rail_urban rail rail_electric rail_fast ship cable_car subway" speed="6.48" length="4.22" shape="14614.21,23674.55 14613.63,23673.64 14613.28,23672.67 14613.16,23671.65 14613.28,23670.57"/>
    </edge>
    <edge id=":1163006249_1" function="internal">
        <lane id=":1163006249_1_0" index="0" disallow="tram rail_urban rail rail_electric rail_fast ship cable_car subway" speed="4.12" length="1.41" shape="14616.41,23671.24 14616.37,23671.60 14616.41,23671.94 14616.52,23672.26 14616.72,23672.57"/>
    </edge>
    <edge id=":11775214750_0" function="internal">
        <lane id=":11775214750_0_0" index="0" allow="private emergency authority army vip passenger hov taxi bus coach delivery truck trailer motorcycle evehicle custom1 custom2" speed="27.77" length="0.30" shape="14170.94,22918.71 14171.20,22918.83"/>
    </edge>
    <edge id=":1217494852_0" function="internal">
        <lane id=":1217494852_0_0" index="0" allow="pedestrian delivery bicycle" speed="8.73" length="5.77" shape="14255.52,23055.55 14255.45,23053.83 14255.34,23052.61 14254.89,23051.54 14253.84,23050.25"/>
    </edge>
    <edge id=":1217494852_1" function="internal">
        <lane id=":1217494852_1_0" index="0" disallow="tram rail_urban rail rail_electric rail_fast ship cable_car subway" speed="22.22" length="6.83" shape="14259.21,23054.05 14258.14,23052.37 14257.73,23051.00 14257.30,23049.64 14256.14,23048.04"/>
    </edge>
    <edge id=":1217498334_0" function="internal">
        <lane id=":1217498334_0_0" index="0" disallow="tram rail_urban rail rail_electric rail_fast ship cable_car subway" speed="19.45" length="0.10" shape="13749.88,21541.35 13749.91,21541.44"/>
    </edge>
    <edge id=":1217498334_1" function="internal">
        <lane id=":1217498334_1_0" index="0" disallow="tram rail_urban rail rail_electric rail_fast ship cable_car subway" speed="19.45" length="0.10" shape="13752.95,21540.46 13752.98,21540.55"/>
    </edge>
    <edge id=":1217508082_0" function="internal">
        <lane id=":1217508082_0_0" index="0" disallow="tram rail_urban rail rail_electric rail_fast ship cable_car subway" speed="16.67" length="0.13" shape="13739.60,21689.23 13739.58,21689.36"/>
    </edge>
    <edge id=":1217508082_1" function="internal">
        <lane id=":1217508082_1_0" index="0" disallow="tram rail_urban rail rail_electric rail_fast ship cable_car subway" speed="16.67" length="0.40" shape="13736.39,21689.09 13736.45,21688.69"/>
    </edge>
    <edge id=":1217509309_0" function="internal">
        <lane id=":1217509309_0_0" index="0" allow="private emergency authority army vip passenger hov taxi bus coach delivery truck trailer motorcycle evehicle custom1 custom2" speed="22.22" length="8.19" shape="13824.25,21770.73 13823.12,21768.59 13822.02,21767.29 13820.93,21765.99 13819.84,21763.83"/>
        <lane id=":1217509309_0_1" index="1" allow="private emergency authority army vip passenger hov taxi bus coach delivery truck trailer motorcycle evehicle custom1 custom2" speed="22.22" length="8.19" shape="13827.22,21769.54 13826.10,21767.42 13825.00,21766.13 13823.92,21764.84 13822.84,21762.70"/>
        <lane id=":1217509309_0_2" index="2" allow="private emergency authority army vip passenger hov taxi bus coach delivery truck trailer motorcycle evehicle custom1 custom2" speed="22.22" length="8.19" shape="13827.22,21769.54 13826.57,21767.24 13826.50,21765.56 13826.44,21763.88 13825.83,21761.56"/>
    </edge>
    <edge id=":14612375_0" function="internal">
        <lane id=":14612375_0_0" index="0" allow="private emergency authority army vip passenger hov taxi bus coach delivery truck trailer motorcycle evehicle custom1 custom2" speed="33.33" length="2.63" shape="14044.70,22797.03 14046.08,22799.27"/>
    </edge>
    <edge id=":14612375_1" function="internal">
        <lane id=":14612375_1_0" index="0" allow="private emergency authority army vip passenger hov taxi bus coach delivery truck trailer motorcycle evehicle custom1 custom2" speed="33.33" length="2.95" shape="14041.93,22798.63 14043.38,22801.07"/>
        <lane id=":14612375_1_1" index="1" allow="private emergency authority army vip passenger hov taxi bus coach delivery truck trailer motorcycle evehicle custom1 custom2" speed="33.33" length="2.95" shape="14039.15,22800.22 14040.71,22802.85"/>
    </edge>
    <edge id=":14612380_0" function="internal">
        <lane id=":14612380_0_0" index="0" allow="private emergency authority army vip passenger hov taxi bus coach delivery truck trailer motorcycle evehicle custom1 custom2" speed="33.33" length="7.96" shape="14623.58,23458.75 14621.69,23457.46 14620.18,23456.91 14618.63,23456.40 14616.65,23455.23"/>
        <lane id=":14612380_0_1" index="1" allow="private emergency authority army vip passenger hov taxi bus coach delivery truck trailer motorcycle evehicle custom1 custom2" speed="33.33" length="7.96" shape="14623.58,23458.75 14621.98,23457.05 14621.14,23455.63 14620.26,23454.25 14618.57,23452.67"/>
        <lane id=":14612380_0_2" index="2" allow="private emergency authority army vip passenger hov taxi bus coach delivery truck trailer motorcycle evehicle custom1 custom2" speed="33.33" length="7.96" shape="14625.67,23456.33 14624.02,23454.58 14623.14,23453.14 14622.24,23451.73 14620.49,23450.11"/>
    </edge>
    <edge id=":26245639-AddedOnRampNode_0" function="internal">
        <lane id=":26245639-AddedOnRampNode_0_0" index="0" allow="private emergency authority army vip passenger hov taxi bus coach delivery truck trailer motorcycle evehicle custom1 custom2" speed="22.22" length="8.00" shape="14166.24,23020.10 14161.62,23013.56"/>
    </edge>
    <edge id=":285198956_0" function="internal">
        <lane id=":285198956_0_0" index="0" disallow="tram rail_urban rail rail_electric rail_fast ship cable_car subway" speed="22.22" length="0.10" shape="14424.86,23555.22 14424.80,23555.16"/>
    </edge>
    <edge id=":285198956_1" function="internal">
        <lane id=":285198956_1_0" index="0" disallow="tram rail_urban rail rail_electric rail_fast ship cable_car subway" speed="22.22" length="0.10" shape="14427.00,23552.84 14426.94,23552.78"/>
    </edge>
    <edge id=":285200044_0" function="internal">
        <lane id=":285200044_0_0" index="0" disallow="tram rail_urban rail rail_electric rail_fast ship cable_car subway" speed="13.89" length="15.44" shape="14122.86,23280.81 14121.21,23277.37 14119.69,23273.78 14118.25,23270.15 14116.88,23266.58"/>
    </edge>
    <edge id=":285200044_1" function="internal">
        <lane id=":285200044_1_0" index="0" disallow="tram rail_urban rail rail_electric rail_fast ship cable_car subway" speed="7.26" length="8.70" shape="14122.86,23280.81 14119.99,23274.03 14119.95,23272.69"/>
    </edge>
    <edge id=":285200044_2" function="internal">
        <lane id=":285200044_2_0" index="0" disallow="tram rail_urban rail rail_electric rail_fast ship cable_car subway" speed="3.65" length="1.45" shape="14122.86,23280.81 14123.11,23279.38"/>
    </edge>
    <edge id=":285200044_9" function="internal">
        <lane id=":285200044_9_0" index="0" disallow="tram rail_urban rail rail_electric rail_fast ship cable_car subway" speed="7.26" length="11.02" shape="14119.95,23272.69 14119.86,23270.14 14122.47,23269.13 14127.81,23271.00"/>
    </edge>
    <edge id=":285200044_10" function="internal">
        <lane id=":285200044_10_0" index="0" disallow="tram rail_urban rail rail_electric rail_fast ship cable_car subway" speed="3.65" length="3.24" shape="14123.11,23279.38 14123.69,23278.69 14124.58,23278.74 14125.80,23279.52"/>
    </edge>
    <edge id=":285200044_3" function="internal">
        <lane id=":285200044_3_0" index="0" disallow="tram rail_urban rail rail_electric rail_fast ship cable_car subway" speed="5.43" length="10.69" shape="14128.61,23275.15 14125.64,23273.69 14124.18,23273.93 14124.24,23275.88 14125.80,23279.52"/>
    </edge>
    <edge id=":285200044_4" function="internal">
        <lane id=":285200044_4_0" index="0" disallow="tram rail_urban rail rail_electric rail_fast ship cable_car subway" speed="13.89" length="14.82" shape="14128.61,23275.15 14125.23,23273.35 14121.82,23271.63 14118.87,23269.52 14116.88,23266.58"/>
    </edge>
    <edge id=":285200044_5" function="internal">
        <lane id=":285200044_5_0" index="0" disallow="tram rail_urban rail rail_electric rail_fast ship cable_car subway" speed="4.07" length="6.17" shape="14128.61,23275.15 14126.85,23274.41 14126.14,23273.47 14126.45,23272.34 14127.81,23271.00"/>
    </edge>
    <edge id=":285200044_6" function="internal">
        <lane id=":285200044_6_0" index="0" disallow="tram rail_urban rail rail_electric rail_fast ship cable_car subway" speed="10.96" length="10.16" shape="14119.86,23265.43 14121.23,23267.91 14122.86,23269.11 14124.98,23269.86 14127.81,23271.00"/>
    </edge>
    <edge id=":285200044_7" function="internal">
        <lane id=":285200044_7_0" index="0" disallow="tram rail_urban rail rail_electric rail_fast ship cable_car subway" speed="13.89" length="15.29" shape="14119.86,23265.43 14121.23,23268.97 14122.65,23272.56 14124.16,23276.10 14125.80,23279.52"/>
    </edge>
    <edge id=":285200044_8" function="internal">
        <lane id=":285200044_8_0" index="0" disallow="tram rail_urban rail rail_electric rail_fast ship cable_car subway" speed="3.65" length="1.44" shape="14119.86,23265.43 14119.55,23266.84"/>
    </edge>
    <edge id=":285200044_11" function="internal">
        <lane id=":285200044_11_0" index="0" disallow="tram rail_urban rail rail_electric rail_fast ship cable_car subway" speed="3.65" length="3.23" shape="14119.55,23266.84 14118.95,23267.50 14118.06,23267.41 14116.88,23266.58"/>
    </edge>
    <edge id=":285201102_0" function="internal">
        <lane id=":285201102_0_0" index="0" disallow="tram rail_urban rail rail_electric rail_fast ship cable_car subway" speed="13.89" length="0.14" shape="14260.37,23397.02 14260.34,23397.00 14260.31,23396.98 14260.28,23396.97 14260.25,23396.95"/>
    </edge>
    <edge id=":285201102_1" function="internal">
        <lane id=":285201102_1_0" index="0" disallow="tram rail_urban rail rail_electric rail_fast ship cable_car subway" speed="13.89" length="0.43" shape="14261.64,23394.07 14261.75,23394.12 14261.83,23394.16 14261.90,23394.21 14262.01,23394.27"/>
    </edge>
    <edge id=":287427957_0" function="internal">
        <lane id=":287427957_0_0" index="0" allow="private emergency authority army vip passenger hov taxi bus coach delivery truck trailer motorcycle evehicle custom1 custom2" speed="27.78" length="3.09" shape="14277.13,23155.83 14275.00,23153.58"/>
    </edge>
    <edge id=":287427957_1" function="internal">
        <lane id=":287427957_1_0" index="0" allow="private emergency authority army vip passenger hov taxi bus coach delivery truck trailer motorcycle evehicle custom1 custom2" speed="27.78" length="3.05" shape="14279.51,23153.70 14277.48,23151.40"/>
        <lane id=":287427957_1_1" index="1" allow="private emergency authority army vip passenger hov taxi bus coach delivery truck trailer motorcycle evehicle custom1 custom2" speed="27.78" length="3.05" shape="14281.90,23151.57 14279.89,23149.29"/>
    </edge>
    <edge id=":3021897405_0" function="internal">
        <lane id=":3021897405_0_0" index="0" allow="private emergency authority army vip passenger hov taxi bus coach delivery truck trailer motorcycle evehicle custom1 custom2" speed="33.33" length="8.26" shape="13984.05,22696.31 13985.64,22698.24 13987.33,22699.08 13989.03,22699.91 13990.64,22701.84"/>
        <lane id=":3021897405_0_1" index="1" allow="private emergency authority army vip passenger hov taxi bus coach delivery truck trailer motorcycle evehicle custom1 custom2" speed="33.33" length="8.26" shape="13984.05,22696.31 13987.82,22703.36"/>