<?xml version="1.0" encoding="UTF-8"?>

<!-- generated on 2025-05-13 12:28:43 by Eclipse SUMO duarouter Version 1.22.0
<duarouterConfiguration xmlns:xsi="http://www.w3.org/2001/XMLSchema-instance" xsi:noNamespaceSchemaLocation="http://sumo.dlr.de/xsd/duarouterConfiguration.xsd">

    <input>
        <net-file value="../simulation/villages/Gurtnellen/osm_original.net.xml"/>
        <additional-files value="data/vehicle_types_new.xml"/>
        <route-files value="output/reconstructed_trips_gurtnellen.trips.xml"/>
    </input>

    <output>
        <output-file value="output/gurtnellen_routes.rou.xml"/>
    </output>

</duarouterConfiguration>
-->

<routes xmlns:xsi="http://www.w3.org/2001/XMLSchema-instance" xsi:noNamespaceSchemaLocation="http://sumo.dlr.de/xsd/routes_file.xsd">
    <vType id="small_truck" length="6.50" maxSpeed="28.00" speedFactor="normc(0.85,0.05,0.20,2.00)" vClass="delivery" impatience="2.50" minGapLat="0.60" lcStrategic="35" lcCooperative="0.3" lcSpeedGain="6.0" lcKeepRight="0.4" lcSublane="2.0" lcPushy="1.8" lcPushyGap="0.4" lcAssertive="2.5" lcImpatience="1.8" lcTimeToImpatience="10" lcSigma="0.5" accel="2.2" decel="4.0" tau="2.8">
        <param key="laneChangeModel" value="SL2015"/>
    </vType>
    <vehicle id="r_axs_got_aAm____1_small_truck.0" type="small_truck" depart="5204.11">
        <route edges="lane_entry_A 33527181#10.27 33527181#10.55 1235288594 846325019#0 846325019#1 846325019#2 846325019#3 1227368393#0 1227368393#1 1235288599 846325020#1 846325020#2 1235288621 1081634444 1235288620 1227368394 1081634439#1 1081634439#2 1235288632 1235288634 lane_exit_speed_B lane_exit_B"/>
    </vehicle>
    <vehicle id="r_axs_got_aAm____1_small_truck.1" type="small_truck" depart="5261.70">
        <route edges="lane_entry_A 33527181#10.27 33527181#10.55 1235288594 846325019#0 846325019#1 846325019#2 846325019#3 1227368393#0 1227368393#1 1235288599 846325020#1 846325020#2 1235288621 1081634444 1235288620 1227368394 1081634439#1 1081634439#2 1235288632 1235288634 lane_exit_speed_B lane_exit_B"/>
    </vehicle>
    <vType id="big_truck" length="12.00" maxSpeed="22.00" speedFactor="normc(0.75,0.04,0.20,2.00)" vClass="truck" impatience="1.80" minGapLat="0.80" lcStrategic="200" lcCooperative="0.1" lcSpeedGain="4.0" lcKeepRight="0.8" lcSublane="1.5" lcPushy="1.2" lcPushyGap="0.3" lcAssertive="2.5" lcImpatience="1.5" lcTimeToImpatience="10" lcSigma="0.4" accel="1.4" decel="3.2" tau="3.5">
        <param key="laneChangeModel" value="SL2015"/>
    </vType>
    <vehicle id="r_axs_got_aAm____1_big_truck.0" type="big_truck" depart="5343.97">
        <route edges="lane_entry_A 33527181#10.27 33527181#10.55 1235288594 846325019#0 846325019#1 846325019#2 846325019#3 1227368393#0 1227368393#1 1235288599 846325020#1 846325020#2 1235288621 1081634444 1235288620 1227368394 1081634439#1 1081634439#2 1235288632 1235288634 lane_exit_speed_B lane_exit_B"/>
    </vehicle>
    <vType id="car_aggr5" maxSpeed="45.00" speedFactor="normc(1.00,0.15,0.20,2.00)" vClass="passenger" impatience="4.00" minGapLat="0.30" lcStrategic="5" lcCooperative="0.0" lcSpeedGain="11.0" lcKeepRight="0.0" lcSublane="6.0" lcPushy="3.0" lcPushyGap="0.1" lcAssertive="5.0" lcImpatience="3.0" lcTimeToImpatience="3" lcSigma="1.2" accel="3.0" decel="8.0" tau="2.5">
        <param key="laneChangeModel" value="SL2015"/>
    </vType>
    <vehicle id="r_axs_got_aAm____1_car_aggr5.0" type="car_aggr5" depart="5347.56">
        <route edges="lane_entry_A 33527181#10.27 33527181#10.55 1235288594 846325019#0 846325019#1 846325019#2 846325019#3 1227368393#0 1227368393#1 1235288599 846325020#1 846325020#2 1235288621 1081634444 1235288620 1227368394 1081634439#1 1081634439#2 1235288632 1235288634 lane_exit_speed_B lane_exit_B"/>
    </vehicle>
    <vType id="car_aggr3" maxSpeed="40.00" speedFactor="normc(0.90,0.10,0.20,2.00)" vClass="passenger" impatience="3.00" minGapLat="0.50" lcStrategic="25" lcCooperative="0.2" lcSpeedGain="9.0" lcKeepRight="0.3" lcSublane="4.0" lcPushy="2.2" lcPushyGap="0.3" lcAssertive="3.5" lcImpatience="2.0" lcTimeToImpatience="9" lcSigma="0.8" accel="2.5" decel="5.0" tau="3.5">
        <param key="laneChangeModel" value="SL2015"/>
    </vType>
    <vehicle id="r_axs_got_aAm____1_car_aggr3.0" type="car_aggr3" depart="5537.40">
        <route edges="lane_entry_A 33527181#10.27 33527181#10.55 1235288594 846325019#0 846325019#1 846325019#2 846325019#3 1227368393#0 1227368393#1 1235288599 846325020#1 846325020#2 1235288621 1081634444 1235288620 1227368394 1081634439#1 1081634439#2 1235288632 1235288634 lane_exit_speed_B lane_exit_B"/>
    </vehicle>
    <vType id="car_aggr2" maxSpeed="35.00" speedFactor="normc(0.85,0.09,0.20,2.00)" vClass="passenger" impatience="2.50" minGapLat="0.60" lcStrategic="40" lcCooperative="0.3" lcSpeedGain="8.0" lcKeepRight="0.5" lcSublane="3.0" lcPushy="1.8" lcPushyGap="0.4" lcAssertive="2.8" lcImpatience="1.5" lcTimeToImpatience="12" lcSigma="0.6" accel="2.2" decel="4.0" tau="4.5">
        <param key="laneChangeModel" value="SL2015"/>
    </vType>
    <vehicle id="r_axs_got_aAm____1_car_aggr2.0" type="car_aggr2" depart="5570.73">
        <route edges="lane_entry_A 33527181#10.27 33527181#10.55 1235288594 846325019#0 846325019#1 846325019#2 846325019#3 1227368393#0 1227368393#1 1235288599 846325020#1 846325020#2 1235288621 1081634444 1235288620 1227368394 1081634439#1 1081634439#2 1235288632 1235288634 lane_exit_speed_B lane_exit_B"/>
    </vehicle>
    <vehicle id="r_axs_got_aAm____1_car_aggr3.1" type="car_aggr3" depart="5574.91">
        <route edges="lane_entry_A 33527181#10.27 33527181#10.55 1235288594 846325019#0 846325019#1 846325019#2 846325019#3 1227368393#0 1227368393#1 1235288599 846325020#1 846325020#2 1235288621 1081634444 1235288620 1227368394 1081634439#1 1081634439#2 1235288632 1235288634 lane_exit_speed_B lane_exit_B"/>
    </vehicle>
    <vType id="car_aggr4" maxSpeed="40.00" speedFactor="normc(0.95,0.12,0.20,2.00)" vClass="passenger" impatience="3.50" minGapLat="0.40" lcStrategic="15" lcCooperative="0.1" lcSpeedGain="10.0" lcKeepRight="0.2" lcSublane="5.0" lcPushy="2.6" lcPushyGap="0.2" lcAssertive="4.2" lcImpatience="2.5" lcTimeToImpatience="6" lcSigma="1.0" accel="2.8" decel="6.0" tau="3.0">
        <param key="laneChangeModel" value="SL2015"/>
    </vType>
    <vehicle id="r_axs_got_aAm____1_car_aggr4.0" type="car_aggr4" depart="5594.06">
        <route edges="lane_entry_A 33527181#10.27 33527181#10.55 1235288594 846325019#0 846325019#1 846325019#2 846325019#3 1227368393#0 1227368393#1 1235288599 846325020#1 846325020#2 1235288621 1081634444 1235288620 1227368394 1081634439#1 1081634439#2 1235288632 1235288634 lane_exit_speed_B lane_exit_B"/>
    </vehicle>
    <vehicle id="r_got_luz_KS_1_big_truck.0" type="big_truck" depart="5698.36">
        <route edges="lane_entry_B -1235288634.27 -12352886340 -1235288632 -1235288631 -1081634439#1 -1081634439#0 -1235288620 -1081634444 -1235288624 -846325020#2 -846325020#1 -846325020#0 -1227368393#1 -1227368393#0 -846325019#3 -846325019#2 -846325019#1 -846325019#0 -1235288594 -33527181#1 lane_exit_speed_A lane_exit_A"/>
    </vehicle>
    <vehicle id="r_got_luz_KS_1_car_aggr4.0" type="car_aggr4" depart="5702.80">
        <route edges="lane_entry_B -1235288634.27 -12352886340 -1235288632 -1235288631 -1081634439#1 -1081634439#0 -1235288620 -1081634444 -1235288624 -846325020#2 -846325020#1 -846325020#0 -1227368393#1 -1227368393#0 -846325019#3 -846325019#2 -846325019#1 -846325019#0 -1235288594 -33527181#1 lane_exit_speed_A lane_exit_A"/>
    </vehicle>
    <vType id="car_aggr1" maxSpeed="35.00" speedFactor="normc(0.80,0.08,0.20,2.00)" vClass="passenger" impatience="2.00" minGapLat="0.80" lcStrategic="60" lcCooperative="0.5" lcSpeedGain="7.0" lcKeepRight="0.6" lcSublane="2.0" lcPushy="1.2" lcPushyGap="0.5" lcAssertive="2.0" lcImpatience="1.0" lcTimeToImpatience="15" lcSigma="0.4" accel="1.8" decel="3.0" tau="5.0">
        <param key="laneChangeModel" value="SL2015"/>
    </vType>
    <vehicle id="r_axs_got_aAm____1_car_aggr1.0" type="car_aggr1" depart="5734.19">
        <route edges="lane_entry_A 33527181#10.27 33527181#10.55 1235288594 846325019#0 846325019#1 846325019#2 846325019#3 1227368393#0 1227368393#1 1235288599 846325020#1 846325020#2 1235288621 1081634444 1235288620 1227368394 1081634439#1 1081634439#2 1235288632 1235288634 lane_exit_speed_B lane_exit_B"/>
    </vehicle>
    <vehicle id="r_axs_got_aAm____1_car_aggr5.1" type="car_aggr5" depart="5737.28">
        <route edges="lane_entry_A 33527181#10.27 33527181#10.55 1235288594 846325019#0 846325019#1 846325019#2 846325019#3 1227368393#0 1227368393#1 1235288599 846325020#1 846325020#2 1235288621 1081634444 1235288620 1227368394 1081634439#1 1081634439#2 1235288632 1235288634 lane_exit_speed_B lane_exit_B"/>
    </vehicle>
    <vehicle id="r_axs_got_aAm____1_car_aggr3.2" type="car_aggr3" depart="5744.95">
        <route edges="lane_entry_A 33527181#10.27 33527181#10.55 1235288594 846325019#0 846325019#1 846325019#2 846325019#3 1227368393#0 1227368393#1 1235288599 846325020#1 846325020#2 1235288621 1081634444 1235288620 1227368394 1081634439#1 1081634439#2 1235288632 1235288634 lane_exit_speed_B lane_exit_B"/>
    </vehicle>
    <vehicle id="r_axs_got_aEr____1_car_aggr4.0" type="car_aggr4" depart="5748.56">
        <route edges="lane_entry_A 33527181#10.27 33527181#10.55 1235288594 846325019#0 846325019#1 846325019#2 846325019#3 1227368393#0 1227368393#1 1235288599 846325020#1 846325020#2 1235288621 1081634444 1235288620 1227368394 1081634439#1 1081634439#2 1235288632 1235288634 lane_exit_speed_B lane_exit_B"/>
    </vehicle>
    <vehicle id="r_luz_got_aAm_____1_car_aggr3.0" type="car_aggr3" depart="6086.05">
        <route edges="lane_entry_A 33527181#10.27 33527181#10.55 1235288594 846325019#0 846325019#1 846325019#2 846325019#3 1227368393#0 1227368393#1 1235288599 846325020#1 846325020#2 1235288621 1081634444 1235288620 1227368394 1081634439#1 1081634439#2 1235288632 1235288634 lane_exit_speed_B lane_exit_B"/>
    </vehicle>
    <vehicle id="r_luz_got_aAm_____1_car_aggr2.0" type="car_aggr2" depart="6151.32">
        <route edges="lane_entry_A 33527181#10.27 33527181#10.55 1235288594 846325019#0 846325019#1 846325019#2 846325019#3 1227368393#0 1227368393#1 1235288599 846325020#1 846325020#2 1235288621 1081634444 1235288620 1227368394 1081634439#1 1081634439#2 1235288632 1235288634 lane_exit_speed_B lane_exit_B"/>
    </vehicle>
    <vType id="motorbike" minGap="1.50" maxSpeed="35.00" speedFactor="normc(0.93,0.09,0.20,2.00)" vClass="motorcycle" impatience="3.80" minGapLat="0.40" lcStrategic="20" lcCooperative="0.2" lcSpeedGain="10.0" lcKeepRight="0.3" lcSublane="5.0" lcPushy="2.5" lcPushyGap="0.3" lcAssertive="3.8" lcImpatience="2.4" lcTimeToImpatience="9" lcSigma="0.9" accel="4.5" decel="7.0" tau="3.0">
        <param key="laneChangeModel" value="SL2015"/>
    </vType>
    <vehicle id="r_got_luz_KS_1_motorbike.0" type="motorbike" depart="6177.48">
        <route edges="lane_entry_B -1235288634.27 -12352886340 -1235288632 -1235288631 -1081634439#1 -1081634439#0 -1235288620 -1081634444 -1235288624 -846325020#2 -846325020#1 -846325020#0 -1227368393#1 -1227368393#0 -846325019#3 -846325019#2 -846325019#1 -846325019#0 -1235288594 -33527181#1 lane_exit_speed_A lane_exit_A"/>
    </vehicle>
    <vehicle id="r_luz_got_aAm_____1_car_aggr1.0" type="car_aggr1" depart="6309.32">
        <route edges="lane_entry_A 33527181#10.27 33527181#10.55 1235288594 846325019#0 846325019#1 846325019#2 846325019#3 1227368393#0 1227368393#1 1235288599 846325020#1 846325020#2 1235288621 1081634444 1235288620 1227368394 1081634439#1 1081634439#2 1235288632 1235288634 lane_exit_speed_B lane_exit_B"/>
    </vehicle>
    <vehicle id="r_luz_got_aAm_____1_car_aggr3.1" type="car_aggr3" depart="6313.54">
        <route edges="lane_entry_A 33527181#10.27 33527181#10.55 1235288594 846325019#0 846325019#1 846325019#2 846325019#3 1227368393#0 1227368393#1 1235288599 846325020#1 846325020#2 1235288621 1081634444 1235288620 1227368394 1081634439#1 1081634439#2 1235288632 1235288634 lane_exit_speed_B lane_exit_B"/>
    </vehicle>
    <vehicle id="r_luz_got_aAm_____1_car_aggr5.0" type="car_aggr5" depart="6316.81">
        <route edges="lane_entry_A 33527181#10.27 33527181#10.55 1235288594 846325019#0 846325019#1 846325019#2 846325019#3 1227368393#0 1227368393#1 1235288599 846325020#1 846325020#2 1235288621 1081634444 1235288620 1227368394 1081634439#1 1081634439#2 1235288632 1235288634 lane_exit_speed_B lane_exit_B"/>
    </vehicle>
    <vehicle id="r_luz_got_aAm_____1_car_aggr3.2" type="car_aggr3" depart="6321.64">
        <route edges="lane_entry_A 33527181#10.27 33527181#10.55 1235288594 846325019#0 846325019#1 846325019#2 846325019#3 1227368393#0 1227368393#1 1235288599 846325020#1 846325020#2 1235288621 1081634444 1235288620 1227368394 1081634439#1 1081634439#2 1235288632 1235288634 lane_exit_speed_B lane_exit_B"/>
    </vehicle>
    <vehicle id="r_luz_got_aAm_____1_car_aggr4.0" type="car_aggr4" depart="6325.30">
        <route edges="lane_entry_A 33527181#10.27 33527181#10.55 1235288594 846325019#0 846325019#1 846325019#2 846325019#3 1227368393#0 1227368393#1 1235288599 846325020#1 846325020#2 1235288621 1081634444 1235288620 1227368394 1081634439#1 1081634439#2 1235288632 1235288634 lane_exit_speed_B lane_exit_B"/>
    </vehicle>
    <vehicle id="r_kla_fur_KS_____1_car_aggr5.0" type="car_aggr5" depart="6328.61">
        <route edges="lane_entry_A 33527181#10.27 33527181#10.55 1235288594 846325019#0 846325019#1 846325019#2 846325019#3 1227368393#0 1227368393#1 1235288599 846325020#1 846325020#2 1235288621 1081634444 1235288620 1227368394 1081634439#1 1081634439#2 1235288632 1235288634 lane_exit_speed_B lane_exit_B"/>
    </vehicle>
    <vehicle id="r_luz_got_aAm_____1_car_aggr1.1" type="car_aggr1" depart="6375.67">
        <route edges="lane_entry_A 33527181#10.27 33527181#10.55 1235288594 846325019#0 846325019#1 846325019#2 846325019#3 1227368393#0 1227368393#1 1235288599 846325020#1 846325020#2 1235288621 1081634444 1235288620 1227368394 1081634439#1 1081634439#2 1235288632 1235288634 lane_exit_speed_B lane_exit_B"/>
    </vehicle>
    <vehicle id="r_axs_got_aAm____1_car_aggr2.1" type="car_aggr2" depart="6457.57">
        <route edges="lane_entry_A 33527181#10.27 33527181#10.55 1235288594 846325019#0 846325019#1 846325019#2 846325019#3 1227368393#0 1227368393#1 1235288599 846325020#1 846325020#2 1235288621 1081634444 1235288620 1227368394 1081634439#1 1081634439#2 1235288632 1235288634 lane_exit_speed_B lane_exit_B"/>
    </vehicle>
    <vehicle id="r_luz_got_aAm_____1_car_aggr4.1" type="car_aggr4" depart="6461.31">
        <route edges="lane_entry_A 33527181#10.27 33527181#10.55 1235288594 846325019#0 846325019#1 846325019#2 846325019#3 1227368393#0 1227368393#1 1235288599 846325020#1 846325020#2 1235288621 1081634444 1235288620 1227368394 1081634439#1 1081634439#2 1235288632 1235288634 lane_exit_speed_B lane_exit_B"/>
    </vehicle>
    <vehicle id="r_got_luz_KS_1_car_aggr2.0" type="car_aggr2" depart="6468.52">
        <route edges="lane_entry_B -1235288634.27 -12352886340 -1235288632 -1235288631 -1081634439#1 -1081634439#0 -1235288620 -1081634444 -1235288624 -846325020#2 -846325020#1 -846325020#0 -1227368393#1 -1227368393#0 -846325019#3 -846325019#2 -846325019#1 -846325019#0 -1235288594 -33527181#1 lane_exit_speed_A lane_exit_A"/>
    </vehicle>
    <vehicle id="r_luz_got_aAm_____1_motorbike.0" type="motorbike" depart="6532.38">
        <route edges="lane_entry_A 33527181#10.27 33527181#10.55 1235288594 846325019#0 846325019#1 846325019#2 846325019#3 1227368393#0 1227368393#1 1235288599 846325020#1 846325020#2 1235288621 1081634444 1235288620 1227368394 1081634439#1 1081634439#2 1235288632 1235288634 lane_exit_speed_B lane_exit_B"/>
    </vehicle>
    <vehicle id="r_axs_got_aAm____1_small_truck.2" type="small_truck" depart="6590.57">
        <route edges="lane_entry_A 33527181#10.27 33527181#10.55 1235288594 846325019#0 846325019#1 846325019#2 846325019#3 1227368393#0 1227368393#1 1235288599 846325020#1 846325020#2 1235288621 1081634444 1235288620 1227368394 1081634439#1 1081634439#2 1235288632 1235288634 lane_exit_speed_B lane_exit_B"/>
    </vehicle>
    <vehicle id="r_luz_got_aAm_____1_car_aggr5.1" type="car_aggr5" depart="6593.74">
        <route edges="lane_entry_A 33527181#10.27 33527181#10.55 1235288594 846325019#0 846325019#1 846325019#2 846325019#3 1227368393#0 1227368393#1 1235288599 846325020#1 846325020#2 1235288621 1081634444 1235288620 1227368394 1081634439#1 1081634439#2 1235288632 1235288634 lane_exit_speed_B lane_exit_B"/>
    </vehicle>
    <vehicle id="r_got_luz_KS_1_car_aggr1.0" type="car_aggr1" depart="6679.10">
        <route edges="lane_entry_B -1235288634.27 -12352886340 -1235288632 -1235288631 -1081634439#1 -1081634439#0 -1235288620 -1081634444 -1235288624 -846325020#2 -846325020#1 -846325020#0 -1227368393#1 -1227368393#0 -846325019#3 -846325019#2 -846325019#1 -846325019#0 -1235288594 -33527181#1 lane_exit_speed_A lane_exit_A"/>
    </vehicle>
    <vehicle id="r_axs_got_aAm____1_car_aggr1.1" type="car_aggr1" depart="6757.56">
        <route edges="lane_entry_A 33527181#10.27 33527181#10.55 1235288594 846325019#0 846325019#1 846325019#2 846325019#3 1227368393#0 1227368393#1 1235288599 846325020#1 846325020#2 1235288621 1081634444 1235288620 1227368394 1081634439#1 1081634439#2 1235288632 1235288634 lane_exit_speed_B lane_exit_B"/>
    </vehicle>
    <vehicle id="r_luz_got_aAm_____1_car_aggr1.2" type="car_aggr1" depart="6763.39">
        <route edges="lane_entry_A 33527181#10.27 33527181#10.55 1235288594 846325019#0 846325019#1 846325019#2 846325019#3 1227368393#0 1227368393#1 1235288599 846325020#1 846325020#2 1235288621 1081634444 1235288620 1227368394 1081634439#1 1081634439#2 1235288632 1235288634 lane_exit_speed_B lane_exit_B"/>
    </vehicle>
    <vehicle id="r_axs_got_aAm____1_car_aggr1.2" type="car_aggr1" depart="6791.50">
        <route edges="lane_entry_A 33527181#10.27 33527181#10.55 1235288594 846325019#0 846325019#1 846325019#2 846325019#3 1227368393#0 1227368393#1 1235288599 846325020#1 846325020#2 1235288621 1081634444 1235288620 1227368394 1081634439#1 1081634439#2 1235288632 1235288634 lane_exit_speed_B lane_exit_B"/>
    </vehicle>
    <vehicle id="r_luz_got_aAm_____1_motorbike.1" type="motorbike" depart="6795.49">
        <route edges="lane_entry_A 33527181#10.27 33527181#10.55 1235288594 846325019#0 846325019#1 846325019#2 846325019#3 1227368393#0 1227368393#1 1235288599 846325020#1 846325020#2 1235288621 1081634444 1235288620 1227368394 1081634439#1 1081634439#2 1235288632 1235288634 lane_exit_speed_B lane_exit_B"/>
    </vehicle>
    <vehicle id="r_luz_got_aAm_____1_motorbike.2" type="motorbike" depart="6799.03">
        <route edges="lane_entry_A 33527181#10.27 33527181#10.55 1235288594 846325019#0 846325019#1 846325019#2 846325019#3 1227368393#0 1227368393#1 1235288599 846325020#1 846325020#2 1235288621 1081634444 1235288620 1227368394 1081634439#1 1081634439#2 1235288632 1235288634 lane_exit_speed_B lane_exit_B"/>
    </vehicle>
    <vehicle id="r_luz_fur_KS_____1_car_aggr3.0" type="car_aggr3" depart="6803.57">
        <route edges="lane_entry_A 33527181#10.27 33527181#10.55 1235288594 846325019#0 846325019#1 846325019#2 846325019#3 1227368393#0 1227368393#1 1235288599 846325020#1 846325020#2 1235288621 1081634444 1235288620 1227368394 1081634439#1 1081634439#2 1235288632 1235288634 lane_exit_speed_B lane_exit_B"/>
    </vehicle>
    <vehicle id="r_luz_fur_KS_____1_car_aggr5.0" type="car_aggr5" depart="6806.81">
        <route edges="lane_entry_A 33527181#10.27 33527181#10.55 1235288594 846325019#0 846325019#1 846325019#2 846325019#3 1227368393#0 1227368393#1 1235288599 846325020#1 846325020#2 1235288621 1081634444 1235288620 1227368394 1081634439#1 1081634439#2 1235288632 1235288634 lane_exit_speed_B lane_exit_B"/>
    </vehicle>
    <vehicle id="r_luz_fur_KS_____1_small_truck.0" type="small_truck" depart="6811.17">
        <route edges="lane_entry_A 33527181#10.27 33527181#10.55 1235288594 846325019#0 846325019#1 846325019#2 846325019#3 1227368393#0 1227368393#1 1235288599 846325020#1 846325020#2 1235288621 1081634444 1235288620 1227368394 1081634439#1 1081634439#2 1235288632 1235288634 lane_exit_speed_B lane_exit_B"/>
    </vehicle>
    <vehicle id="r_luz_got_aAm_____1_motorbike.3" type="motorbike" depart="6815.18">
        <route edges="lane_entry_A 33527181#10.27 33527181#10.55 1235288594 846325019#0 846325019#1 846325019#2 846325019#3 1227368393#0 1227368393#1 1235288599 846325020#1 846325020#2 1235288621 1081634444 1235288620 1227368394 1081634439#1 1081634439#2 1235288632 1235288634 lane_exit_speed_B lane_exit_B"/>
    </vehicle>
    <vehicle id="r_axs_got_aAm____1_car_aggr5.2" type="car_aggr5" depart="6818.17">
        <route edges="lane_entry_A 33527181#10.27 33527181#10.55 1235288594 846325019#0 846325019#1 846325019#2 846325019#3 1227368393#0 1227368393#1 1235288599 846325020#1 846325020#2 1235288621 1081634444 1235288620 1227368394 1081634439#1 1081634439#2 1235288632 1235288634 lane_exit_speed_B lane_exit_B"/>
    </vehicle>
    <vehicle id="r_luz_got_aAm_____1_car_aggr3.3" type="car_aggr3" depart="6822.91">
        <route edges="lane_entry_A 33527181#10.27 33527181#10.55 1235288594 846325019#0 846325019#1 846325019#2 846325019#3 1227368393#0 1227368393#1 1235288599 846325020#1 846325020#2 1235288621 1081634444 1235288620 1227368394 1081634439#1 1081634439#2 1235288632 1235288634 lane_exit_speed_B lane_exit_B"/>
    </vehicle>
    <vehicle id="r_luz_got_aAm_____1_car_aggr1.3" type="car_aggr1" depart="6829.72">
        <route edges="lane_entry_A 33527181#10.27 33527181#10.55 1235288594 846325019#0 846325019#1 846325019#2 846325019#3 1227368393#0 1227368393#1 1235288599 846325020#1 846325020#2 1235288621 1081634444 1235288620 1227368394 1081634439#1 1081634439#2 1235288632 1235288634 lane_exit_speed_B lane_exit_B"/>
    </vehicle>
    <vehicle id="r_kla_fur_KS_____1_car_aggr2.0" type="car_aggr2" depart="6848.32">
        <route edges="lane_entry_A 33527181#10.27 33527181#10.55 1235288594 846325019#0 846325019#1 846325019#2 846325019#3 1227368393#0 1227368393#1 1235288599 846325020#1 846325020#2 1235288621 1081634444 1235288620 1227368394 1081634439#1 1081634439#2 1235288632 1235288634 lane_exit_speed_B lane_exit_B"/>
    </vehicle>
    <vehicle id="r_luz_got_aAm_____1_car_aggr1.4" type="car_aggr1" depart="6854.79">
        <route edges="lane_entry_A 33527181#10.27 33527181#10.55 1235288594 846325019#0 846325019#1 846325019#2 846325019#3 1227368393#0 1227368393#1 1235288599 846325020#1 846325020#2 1235288621 1081634444 1235288620 1227368394 1081634439#1 1081634439#2 1235288632 1235288634 lane_exit_speed_B lane_exit_B"/>
    </vehicle>
    <vehicle id="r_kla_fur_KS_____1_car_aggr1.0" type="car_aggr1" depart="6860.49">
        <route edges="lane_entry_A 33527181#10.27 33527181#10.55 1235288594 846325019#0 846325019#1 846325019#2 846325019#3 1227368393#0 1227368393#1 1235288599 846325020#1 846325020#2 1235288621 1081634444 1235288620 1227368394 1081634439#1 1081634439#2 1235288632 1235288634 lane_exit_speed_B lane_exit_B"/>
    </vehicle>
    <vehicle id="r_luz_got_aAm_____1_car_aggr2.1" type="car_aggr2" depart="6865.75">
        <route edges="lane_entry_A 33527181#10.27 33527181#10.55 1235288594 846325019#0 846325019#1 846325019#2 846325019#3 1227368393#0 1227368393#1 1235288599 846325020#1 846325020#2 1235288621 1081634444 1235288620 1227368394 1081634439#1 1081634439#2 1235288632 1235288634 lane_exit_speed_B lane_exit_B"/>
    </vehicle>
    <vehicle id="r_axs_got_aAm____1_car_aggr5.3" type="car_aggr5" depart="6868.85">
        <route edges="lane_entry_A 33527181#10.27 33527181#10.55 1235288594 846325019#0 846325019#1 846325019#2 846325019#3 1227368393#0 1227368393#1 1235288599 846325020#1 846325020#2 1235288621 1081634444 1235288620 1227368394 1081634439#1 1081634439#2 1235288632 1235288634 lane_exit_speed_B lane_exit_B"/>
    </vehicle>
    <vehicle id="r_luz_got_aEr_____1_motorbike.0" type="motorbike" depart="6941.66">
        <route edges="lane_entry_A 33527181#10.27 33527181#10.55 1235288594 846325019#0 846325019#1 846325019#2 846325019#3 1227368393#0 1227368393#1 1235288599 846325020#1 846325020#2 1235288621 1081634444 1235288620 1227368394 1081634439#1 1081634439#2 1235288632 1235288634 lane_exit_speed_B lane_exit_B"/>
    </vehicle>
    <vehicle id="r_got_luz_KS_1_car_aggr2.1" type="car_aggr2" depart="7094.18">
        <route edges="lane_entry_B -1235288634.27 -12352886340 -1235288632 -1235288631 -1081634439#1 -1081634439#0 -1235288620 -1081634444 -1235288624 -846325020#2 -846325020#1 -846325020#0 -1227368393#1 -1227368393#0 -846325019#3 -846325019#2 -846325019#1 -846325019#0 -1235288594 -33527181#1 lane_exit_speed_A lane_exit_A"/>
    </vehicle>
    <vehicle id="r_luz_fur_KS_____1_car_aggr1.0" type="car_aggr1" depart="7218.96">
        <route edges="lane_entry_A 33527181#10.27 33527181#10.55 1235288594 846325019#0 846325019#1 846325019#2 846325019#3 1227368393#0 1227368393#1 1235288599 846325020#1 846325020#2 1235288621 1081634444 1235288620 1227368394 1081634439#1 1081634439#2 1235288632 1235288634 lane_exit_speed_B lane_exit_B"/>
    </vehicle>
    <vehicle id="r_luz_fur_KS_____1_motorbike.0" type="motorbike" depart="7222.80">
        <route edges="lane_entry_A 33527181#10.27 33527181#10.55 1235288594 846325019#0 846325019#1 846325019#2 846325019#3 1227368393#0 1227368393#1 1235288599 846325020#1 846325020#2 1235288621 1081634444 1235288620 1227368394 1081634439#1 1081634439#2 1235288632 1235288634 lane_exit_speed_B lane_exit_B"/>
    </vehicle>
    <vehicle id="r_alt_and_1_1_motorbike.0" type="motorbike" depart="7226.44">
        <route edges="lane_entry_A 33527181#10.27 33527181#10.55 1235288594 846325019#0 846325019#1 846325019#2 846325019#3 1227368393#0 1227368393#1 1235288599 846325020#1 846325020#2 1235288621 1081634444 1235288620 1227368394 1081634439#1 1081634439#2 1235288632 1235288634 lane_exit_speed_B lane_exit_B"/>
    </vehicle>
    <vehicle id="r_kla_oba_KS_____1_motorbike.0" type="motorbike" depart="7229.96">
        <route edges="lane_entry_A 33527181#10.27 33527181#10.55 1235288594 846325019#0 846325019#1 846325019#2 846325019#3 1227368393#0 1227368393#1 1235288599 846325020#1 846325020#2 1235288621 1081634444 1235288620 1227368394 1081634439#1 1081634439#2 1235288632 1235288634 lane_exit_speed_B lane_exit_B"/>
    </vehicle>
    <vehicle id="r_luz_fur_KS_____1_car_aggr5.1" type="car_aggr5" depart="7380.08">
        <route edges="lane_entry_A 33527181#10.27 33527181#10.55 1235288594 846325019#0 846325019#1 846325019#2 846325019#3 1227368393#0 1227368393#1 1235288599 846325020#1 846325020#2 1235288621 1081634444 1235288620 1227368394 1081634439#1 1081634439#2 1235288632 1235288634 lane_exit_speed_B lane_exit_B"/>
    </vehicle>
    <vehicle id="r_alt_and_1_1_car_aggr5.0" type="car_aggr5" depart="7383.20">
        <route edges="lane_entry_A 33527181#10.27 33527181#10.55 1235288594 846325019#0 846325019#1 846325019#2 846325019#3 1227368393#0 1227368393#1 1235288599 846325020#1 846325020#2 1235288621 1081634444 1235288620 1227368394 1081634439#1 1081634439#2 1235288632 1235288634 lane_exit_speed_B lane_exit_B"/>
    </vehicle>
    <vehicle id="r_luz_got_aAm_____1_car_aggr2.2" type="car_aggr2" depart="7583.07">
        <route edges="lane_entry_A 33527181#10.27 33527181#10.55 1235288594 846325019#0 846325019#1 846325019#2 846325019#3 1227368393#0 1227368393#1 1235288599 846325020#1 846325020#2 1235288621 1081634444 1235288620 1227368394 1081634439#1 1081634439#2 1235288632 1235288634 lane_exit_speed_B lane_exit_B"/>
    </vehicle>
    <vehicle id="r_luz_got_aAm_____1_car_aggr2.3" type="car_aggr2" depart="7591.88">
        <route edges="lane_entry_A 33527181#10.27 33527181#10.55 1235288594 846325019#0 846325019#1 846325019#2 846325019#3 1227368393#0 1227368393#1 1235288599 846325020#1 846325020#2 1235288621 1081634444 1235288620 1227368394 1081634439#1 1081634439#2 1235288632 1235288634 lane_exit_speed_B lane_exit_B"/>
    </vehicle>
    <vehicle id="r_luz_got_aAm_____1_car_aggr5.2" type="car_aggr5" depart="7595.07">
        <route edges="lane_entry_A 33527181#10.27 33527181#10.55 1235288594 846325019#0 846325019#1 846325019#2 846325019#3 1227368393#0 1227368393#1 1235288599 846325020#1 846325020#2 1235288621 1081634444 1235288620 1227368394 1081634439#1 1081634439#2 1235288632 1235288634 lane_exit_speed_B lane_exit_B"/>
    </vehicle>
    <vehicle id="r_luz_got_aAm_____1_car_aggr5.3" type="car_aggr5" depart="7598.21">
        <route edges="lane_entry_A 33527181#10.27 33527181#10.55 1235288594 846325019#0 846325019#1 846325019#2 846325019#3 1227368393#0 1227368393#1 1235288599 846325020#1 846325020#2 1235288621 1081634444 1235288620 1227368394 1081634439#1 1081634439#2 1235288632 1235288634 lane_exit_speed_B lane_exit_B"/>
    </vehicle>
    <vehicle id="r_axs_got_aAm____1_car_aggr3.3" type="car_aggr3" depart="7652.98">
        <route edges="lane_entry_A 33527181#10.27 33527181#10.55 1235288594 846325019#0 846325019#1 846325019#2 846325019#3 1227368393#0 1227368393#1 1235288599 846325020#1 846325020#2 1235288621 1081634444 1235288620 1227368394 1081634439#1 1081634439#2 1235288632 1235288634 lane_exit_speed_B lane_exit_B"/>
    </vehicle>
    <vehicle id="r_luz_got_aAm_____1_car_aggr3.4" type="car_aggr3" depart="7660.19">
        <route edges="lane_entry_A 33527181#10.27 33527181#10.55 1235288594 846325019#0 846325019#1 846325019#2 846325019#3 1227368393#0 1227368393#1 1235288599 846325020#1 846325020#2 1235288621 1081634444 1235288620 1227368394 1081634439#1 1081634439#2 1235288632 1235288634 lane_exit_speed_B lane_exit_B"/>
    </vehicle>
    <vehicle id="r_luz_got_aAm_____1_motorbike.4" type="motorbike" depart="7679.14">