<?xml version="1.0" encoding="UTF-8"?>

<!-- generated on 2025-05-15 21:40:05 by Eclipse SUMO duarouter Version 1.22.0
<duarouterConfiguration xmlns:xsi="http://www.w3.org/2001/XMLSchema-instance" xsi:noNamespaceSchemaLocation="http://sumo.dlr.de/xsd/duarouterConfiguration.xsd">

    <input>
        <net-file value="../simulation/villages/Goeschenen/goeschenen_osm.net.xml"/>
        <additional-files value="data/vehicle_types_new.xml"/>
        <route-files value="output/reconstructed_trips_goeschenen.trips.xml"/>
    </input>

    <output>
        <output-file value="output/05_17_routes_goeschenen.rou.xml"/>
    </output>

</duarouterConfiguration>
-->

<routes xmlns:xsi="http://www.w3.org/2001/XMLSchema-instance" xsi:noNamespaceSchemaLocation="http://sumo.dlr.de/xsd/routes_file.xsd">
    <vType id="car_aggr1" maxSpeed="35.00" speedFactor="normc(0.80,0.08,0.20,2.00)" vClass="passenger" impatience="2.00" minGapLat="0.80" lcStrategic="60" lcCooperative="0.5" lcSpeedGain="7.0" lcKeepRight="0.6" lcSublane="2.0" lcPushy="1.2" lcPushyGap="0.5" lcAssertive="2.0" lcImpatience="1.0" lcTimeToImpatience="15" lcSigma="0.4" accel="1.8" decel="3.0" tau="5.0">
        <param key="laneChangeModel" value="SL2015"/>
    </vType>
    <vehicle id="r_oba_luz_A______0_car_aggr1.0" type="car_aggr1" depart="2346.46">
        <route edges="lane_entry_E ppp -24765228 -1194954756 -1194954755 -26825652#0 -1194954753 -1194954747#1 -1194954747#0 4212603#5 4212603#1 1255318896 4212611 1316288014 1255318897 803039921 lane_exit_speed_A lane_exit_A"/>
    </vehicle>
    <vType id="car_aggr2" maxSpeed="35.00" speedFactor="normc(0.85,0.09,0.20,2.00)" vClass="passenger" impatience="2.50" minGapLat="0.60" lcStrategic="40" lcCooperative="0.3" lcSpeedGain="8.0" lcKeepRight="0.5" lcSublane="3.0" lcPushy="1.8" lcPushyGap="0.4" lcAssertive="2.8" lcImpatience="1.5" lcTimeToImpatience="12" lcSigma="0.6" accel="2.2" decel="4.0" tau="4.5">
        <param key="laneChangeModel" value="SL2015"/>
    </vType>
    <vehicle id="r_oba_luz_A______0_car_aggr2.0" type="car_aggr2" depart="2351.99">
        <route edges="lane_entry_E ppp -24765228 -1194954756 -1194954755 -26825652#0 -1194954753 -1194954747#1 -1194954747#0 4212603#5 4212603#1 1255318896 4212611 1316288014 1255318897 803039921 lane_exit_speed_A lane_exit_A"/>
    </vehicle>
    <vType id="car_aggr3" maxSpeed="40.00" speedFactor="normc(0.90,0.10,0.20,2.00)" vClass="passenger" impatience="3.00" minGapLat="0.50" lcStrategic="25" lcCooperative="0.2" lcSpeedGain="9.0" lcKeepRight="0.3" lcSublane="4.0" lcPushy="2.2" lcPushyGap="0.3" lcAssertive="3.5" lcImpatience="2.0" lcTimeToImpatience="9" lcSigma="0.8" accel="2.5" decel="5.0" tau="3.5">
        <param key="laneChangeModel" value="SL2015"/>
    </vType>
    <vehicle id="r_oba_luz_A______0_car_aggr3.0" type="car_aggr3" depart="2748.63">
        <route edges="lane_entry_E ppp -24765228 -1194954756 -1194954755 -26825652#0 -1194954753 -1194954747#1 -1194954747#0 4212603#5 4212603#1 1255318896 4212611 1316288014 1255318897 803039921 lane_exit_speed_A lane_exit_A"/>
    </vehicle>
    <vehicle id="r_oba_axs_A______0_car_aggr3.0" type="car_aggr3" depart="3688.91">
        <route edges="lane_entry_E ppp -24765228 -1194954756 -1194954755 -26825652#0 -1194954753 -1194954747#1 -1194954747#0 4212603#5 4212603#1 1255318896 4212611 1316288014 1255318897 803039921 lane_exit_speed_A lane_exit_A"/>
    </vehicle>
    <vehicle id="r_oba_luz_A______0_car_aggr1.1" type="car_aggr1" depart="3995.94">
        <route edges="lane_entry_E ppp -24765228 -1194954756 -1194954755 -26825652#0 -1194954753 -1194954747#1 -1194954747#0 4212603#5 4212603#1 1255318896 4212611 1316288014 1255318897 803039921 lane_exit_speed_A lane_exit_A"/>
    </vehicle>
    <vType id="motorbike" minGap="1.50" maxSpeed="35.00" speedFactor="normc(0.93,0.09,0.20,2.00)" vClass="motorcycle" impatience="3.80" minGapLat="0.40" lcStrategic="20" lcCooperative="0.2" lcSpeedGain="10.0" lcKeepRight="0.3" lcSublane="5.0" lcPushy="2.5" lcPushyGap="0.3" lcAssertive="3.8" lcImpatience="2.4" lcTimeToImpatience="9" lcSigma="0.9" accel="4.5" decel="7.0" tau="3.0">
        <param key="laneChangeModel" value="SL2015"/>
    </vType>
    <vehicle id="r_oba_luz_A______0_motorbike.0" type="motorbike" depart="3999.82">
        <route edges="lane_entry_E ppp -24765228 -1194954756 -1194954755 -26825652#0 -1194954753 -1194954747#1 -1194954747#0 4212603#5 4212603#1 1255318896 4212611 1316288014 1255318897 803039921 lane_exit_speed_A lane_exit_A"/>
    </vehicle>
    <vType id="small_truck" length="6.50" maxSpeed="28.00" speedFactor="normc(0.85,0.05,0.20,2.00)" vClass="delivery" impatience="2.50" minGapLat="0.60" lcStrategic="35" lcCooperative="0.3" lcSpeedGain="6.0" lcKeepRight="0.4" lcSublane="2.0" lcPushy="1.8" lcPushyGap="0.4" lcAssertive="2.5" lcImpatience="1.8" lcTimeToImpatience="10" lcSigma="0.5" accel="2.2" decel="4.0" tau="2.8">
        <param key="laneChangeModel" value="SL2015"/>
    </vType>
    <vehicle id="r_oba_axs_A______0_small_truck.0" type="small_truck" depart="4524.48">
        <route edges="lane_entry_E ppp -24765228 -1194954756 -1194954755 -26825652#0 -1194954753 -1194954747#1 -1194954747#0 4212603#5 4212603#1 1255318896 4212611 1316288014 1255318897 803039921 lane_exit_speed_A lane_exit_A"/>
    </vehicle>
    <vehicle id="r_tun_axs_KS_____1_small_truck.0" type="small_truck" depart="5629.08">
        <route edges="lane_entry_B 43347599.51 1316288013 304476606 4212603#3 4212603#4 4212603#5 -268051640#2 -268051640#1 lane_exit_speed_C lane_exit_C"/>
    </vehicle>
    <vehicle id="r_tun_axs_KS_____1_motorbike.0" type="motorbike" depart="5950.88">
        <route edges="lane_entry_B 43347599.51 1316288013 304476606 4212603#3 4212603#4 4212603#5 -268051640#2 -268051640#1 lane_exit_speed_C lane_exit_C"/>
    </vehicle>
    <vehicle id="r_tun_axs_KS_____1_car_aggr2.0" type="car_aggr2" depart="6209.73">
        <route edges="lane_entry_B 43347599.51 1316288013 304476606 4212603#3 4212603#4 4212603#5 -268051640#2 -268051640#1 lane_exit_speed_C lane_exit_C"/>
    </vehicle>
    <vehicle id="r_tun_axs_KS_____1_car_aggr2.1" type="car_aggr2" depart="6446.76">
        <route edges="lane_entry_B 43347599.51 1316288013 304476606 4212603#3 4212603#4 4212603#5 -268051640#2 -268051640#1 lane_exit_speed_C lane_exit_C"/>
    </vehicle>
    <vType id="car_aggr4" maxSpeed="40.00" speedFactor="normc(0.95,0.12,0.20,2.00)" vClass="passenger" impatience="3.50" minGapLat="0.40" lcStrategic="15" lcCooperative="0.1" lcSpeedGain="10.0" lcKeepRight="0.2" lcSublane="5.0" lcPushy="2.6" lcPushyGap="0.2" lcAssertive="4.2" lcImpatience="2.5" lcTimeToImpatience="6" lcSigma="1.0" accel="2.8" decel="6.0" tau="3.0">
        <param key="laneChangeModel" value="SL2015"/>
    </vType>
    <vehicle id="r_oba_axs_A______1_car_aggr4.0" type="car_aggr4" depart="6551.35">
        <route edges="lane_entry_E ppp -24765228 -1194954756 -1194954755 -26825652#0 -1194954753 -1194954747#1 -1194954747#0 4212603#5 4212603#1 1255318896 4212611 1316288014 1255318897 803039921 lane_exit_speed_A lane_exit_A"/>
    </vehicle>
    <vehicle id="r_and_alt_1_1_car_aggr3.0" type="car_aggr3" depart="6987.89">
        <route edges="lane_entry_E ppp -24765228 -1194954756 -1194954755 -26825652#0 -1194954753 -1194954747#1 -1194954747#0 4212603#5 -268051640#2 -268051640#1 lane_exit_speed_C lane_exit_C"/>
    </vehicle>
    <vehicle id="r_alt_and_1_1_car_aggr4.0" type="car_aggr4" depart="7047.38">
        <route edges="lane_entry_C 268051640#1.35 268051640#1.56 268051640#2 4212603#1 4212603#2 4212603#3 4212603#4 1194954747#0 1194954747#1 1194954753 26825652#0 26825652#1 1194954756 1194954754 lane_exit_speed_E lane_exit_E"/>
    </vehicle>
    <vehicle id="r_alt_and_1_1_car_aggr4.1" type="car_aggr4" depart="7374.82">
        <route edges="lane_entry_C 268051640#1.35 268051640#1.56 268051640#2 4212603#1 4212603#2 4212603#3 4212603#4 1194954747#0 1194954747#1 1194954753 26825652#0 26825652#1 1194954756 1194954754 lane_exit_speed_E lane_exit_E"/>
    </vehicle>
    <vehicle id="r_tun_axs_KS_____1_car_aggr4.0" type="car_aggr4" depart="7375.88">
        <route edges="lane_entry_B 43347599.51 1316288013 304476606 4212603#3 4212603#4 4212603#5 -268051640#2 -268051640#1 lane_exit_speed_C lane_exit_C"/>
    </vehicle>
    <vType id="car_aggr5" maxSpeed="45.00" speedFactor="normc(1.00,0.15,0.20,2.00)" vClass="passenger" impatience="4.00" minGapLat="0.30" lcStrategic="5" lcCooperative="0.0" lcSpeedGain="11.0" lcKeepRight="0.0" lcSublane="6.0" lcPushy="3.0" lcPushyGap="0.1" lcAssertive="5.0" lcImpatience="3.0" lcTimeToImpatience="3" lcSigma="1.2" accel="3.0" decel="8.0" tau="2.5">
        <param key="laneChangeModel" value="SL2015"/>
    </vType>
    <vehicle id="r_tun_axs_KS_____1_car_aggr5.0" type="car_aggr5" depart="7800.87">
        <route edges="lane_entry_B 43347599.51 1316288013 304476606 4212603#3 4212603#4 4212603#5 -268051640#2 -268051640#1 lane_exit_speed_C lane_exit_C"/>
    </vehicle>
    <vehicle id="r_oba_axs_A______1_car_aggr2.0" type="car_aggr2" depart="7982.61">
        <route edges="lane_entry_E ppp -24765228 -1194954756 -1194954755 -26825652#0 -1194954753 -1194954747#1 -1194954747#0 4212603#5 4212603#1 1255318896 4212611 1316288014 1255318897 803039921 lane_exit_speed_A lane_exit_A"/>
    </vehicle>
    <vehicle id="r_alt_and_1_1_motorbike.0" type="motorbike" depart="9005.38">
        <route edges="lane_entry_C 268051640#1.35 268051640#1.56 268051640#2 4212603#1 4212603#2 4212603#3 4212603#4 1194954747#0 1194954747#1 1194954753 26825652#0 26825652#1 1194954756 1194954754 lane_exit_speed_E lane_exit_E"/>
    </vehicle>
    <vehicle id="r_luz_oba_A______2_car_aggr3.0" type="car_aggr3" depart="9560.43">
        <route edges="lane_entry_A 43346331#1.79 43346331#2 1316288013 304476606 4212603#3 4212603#4 1194954747#0 1194954747#1 1194954753 26825652#0 26825652#1 1194954756 1194954754 lane_exit_speed_E lane_exit_E"/>
    </vehicle>
    <vehicle id="r_luz_oba_A______2_car_aggr3.1" type="car_aggr3" depart="10504.00">
        <route edges="lane_entry_A 43346331#1.79 43346331#2 1316288013 304476606 4212603#3 4212603#4 1194954747#0 1194954747#1 1194954753 26825652#0 26825652#1 1194954756 1194954754 lane_exit_speed_E lane_exit_E"/>
    </vehicle>
    <vehicle id="r_oba_axs_A______2_car_aggr5.0" type="car_aggr5" depart="10556.92">
        <route edges="lane_entry_E ppp -24765228 -1194954756 -1194954755 -26825652#0 -1194954753 -1194954747#1 -1194954747#0 4212603#5 4212603#1 1255318896 4212611 1316288014 1255318897 803039921 lane_exit_speed_A lane_exit_A"/>
    </vehicle>
    <vehicle id="r_luz_oba_A______2_car_aggr4.0" type="car_aggr4" depart="10934.66">
        <route edges="lane_entry_A 43346331#1.79 43346331#2 1316288013 304476606 4212603#3 4212603#4 1194954747#0 1194954747#1 1194954753 26825652#0 26825652#1 1194954756 1194954754 lane_exit_speed_E lane_exit_E"/>
    </vehicle>
    <vehicle id="r_luz_oba_A______2_car_aggr3.2" type="car_aggr3" depart="12198.72">
        <route edges="lane_entry_A 43346331#1.79 43346331#2 1316288013 304476606 4212603#3 4212603#4 1194954747#0 1194954747#1 1194954753 26825652#0 26825652#1 1194954756 1194954754 lane_exit_speed_E lane_exit_E"/>
    </vehicle>
    <vehicle id="r_oba_axs_A______3_car_aggr3.0" type="car_aggr3" depart="12517.87">
        <route edges="lane_entry_E ppp -24765228 -1194954756 -1194954755 -26825652#0 -1194954753 -1194954747#1 -1194954747#0 4212603#5 4212603#1 1255318896 4212611 1316288014 1255318897 803039921 lane_exit_speed_A lane_exit_A"/>
    </vehicle>
    <vehicle id="r_oba_axs_A______3_car_aggr3.1" type="car_aggr3" depart="13577.45">
        <route edges="lane_entry_E ppp -24765228 -1194954756 -1194954755 -26825652#0 -1194954753 -1194954747#1 -1194954747#0 4212603#5 4212603#1 1255318896 4212611 1316288014 1255318897 803039921 lane_exit_speed_A lane_exit_A"/>
    </vehicle>
    <vehicle id="r_luz_oba_A______3_car_aggr3.0" type="car_aggr3" depart="13668.25">
        <route edges="lane_entry_A 43346331#1.79 43346331#2 1316288013 304476606 4212603#3 4212603#4 1194954747#0 1194954747#1 1194954753 26825652#0 26825652#1 1194954756 1194954754 lane_exit_speed_E lane_exit_E"/>
    </vehicle>
    <vehicle id="r_luz_oba_A______3_car_aggr3.1" type="car_aggr3" depart="13945.27">
        <route edges="lane_entry_A 43346331#1.79 43346331#2 1316288013 304476606 4212603#3 4212603#4 1194954747#0 1194954747#1 1194954753 26825652#0 26825652#1 1194954756 1194954754 lane_exit_speed_E lane_exit_E"/>
    </vehicle>
    <vehicle id="r_luz_oba_A______3_car_aggr3.3" type="car_aggr3" depart="13949.38">
        <route edges="lane_entry_A 43346331#1.79 43346331#2 1316288013 304476606 4212603#3 4212603#4 1194954747#0 1194954747#1 1194954753 26825652#0 26825652#1 1194954756 1194954754 lane_exit_speed_E lane_exit_E"/>
    </vehicle>
    <vehicle id="r_oba_axs_A______3_car_aggr3.2" type="car_aggr3" depart="14099.99">
        <route edges="lane_entry_E ppp -24765228 -1194954756 -1194954755 -26825652#0 -1194954753 -1194954747#1 -1194954747#0 4212603#5 4212603#1 1255318896 4212611 1316288014 1255318897 803039921 lane_exit_speed_A lane_exit_A"/>
    </vehicle>
    <vehicle id="r_luz_oba_A______3_car_aggr3.2" type="car_aggr3" depart="14225.68">
        <route edges="lane_entry_A 43346331#1.79 43346331#2 1316288013 304476606 4212603#3 4212603#4 1194954747#0 1194954747#1 1194954753 26825652#0 26825652#1 1194954756 1194954754 lane_exit_speed_E lane_exit_E"/>
    </vehicle>
    <vType id="big_truck" length="12.00" maxSpeed="22.00" speedFactor="normc(0.75,0.04,0.20,2.00)" vClass="truck" impatience="1.80" minGapLat="0.80" lcStrategic="200" lcCooperative="0.1" lcSpeedGain="4.0" lcKeepRight="0.8" lcSublane="1.5" lcPushy="1.2" lcPushyGap="0.3" lcAssertive="2.5" lcImpatience="1.5" lcTimeToImpatience="10" lcSigma="0.4" accel="1.4" decel="3.2" tau="3.5">
        <param key="laneChangeModel" value="SL2015"/>
    </vType>
    <vehicle id="r_oba_axs_A______3_big_truck.0" type="big_truck" depart="14311.81">
        <route edges="lane_entry_E ppp -24765228 -1194954756 -1194954755 -26825652#0 -1194954753 -1194954747#1 -1194954747#0 4212603#5 4212603#1 1255318896 4212611 1316288014 1255318897 803039921 lane_exit_speed_A lane_exit_A"/>
    </vehicle>
    <vehicle id="r_oba_axs_A______3_car_aggr5.0" type="car_aggr5" depart="14315.77">
        <route edges="lane_entry_E ppp -24765228 -1194954756 -1194954755 -26825652#0 -1194954753 -1194954747#1 -1194954747#0 4212603#5 4212603#1 1255318896 4212611 1316288014 1255318897 803039921 lane_exit_speed_A lane_exit_A"/>
    </vehicle>
    <vehicle id="r_oba_axs_A______3_car_aggr2.0" type="car_aggr2" depart="14856.55">
        <route edges="lane_entry_E ppp -24765228 -1194954756 -1194954755 -26825652#0 -1194954753 -1194954747#1 -1194954747#0 4212603#5 4212603#1 1255318896 4212611 1316288014 1255318897 803039921 lane_exit_speed_A lane_exit_A"/>
    </vehicle>
    <vehicle id="r_oba_axs_A______3_car_aggr4.0" type="car_aggr4" depart="14864.01">
        <route edges="lane_entry_E ppp -24765228 -1194954756 -1194954755 -26825652#0 -1194954753 -1194954747#1 -1194954747#0 4212603#5 4212603#1 1255318896 4212611 1316288014 1255318897 803039921 lane_exit_speed_A lane_exit_A"/>
    </vehicle>
    <vehicle id="r_luz_oba_A______3_car_aggr3.4" type="car_aggr3" depart="14888.34">
        <route edges="lane_entry_A 43346331#1.79 43346331#2 1316288013 304476606 4212603#3 4212603#4 1194954747#0 1194954747#1 1194954753 26825652#0 26825652#1 1194954756 1194954754 lane_exit_speed_E lane_exit_E"/>
    </vehicle>
    <vehicle id="r_luz_oba_A______3_car_aggr1.0" type="car_aggr1" depart="15215.93">
        <route edges="lane_entry_A 43346331#1.79 43346331#2 1316288013 304476606 4212603#3 4212603#4 1194954747#0 1194954747#1 1194954753 26825652#0 26825652#1 1194954756 1194954754 lane_exit_speed_E lane_exit_E"/>
    </vehicle>
    <vehicle id="r_alt_and_1_3_car_aggr3.0" type="car_aggr3" depart="15376.00">
        <route edges="lane_entry_C 268051640#1.35 268051640#1.56 268051640#2 4212603#1 4212603#2 4212603#3 4212603#4 1194954747#0 1194954747#1 1194954753 26825652#0 26825652#1 1194954756 1194954754 lane_exit_speed_E lane_exit_E"/>
    </vehicle>
    <vehicle id="r_and_alt_1_4_small_truck.0" type="small_truck" depart="15980.34">
        <route edges="lane_entry_E ppp -24765228 -1194954756 -1194954755 -26825652#0 -1194954753 -1194954747#1 -1194954747#0 4212603#5 -268051640#2 -268051640#1 lane_exit_speed_C lane_exit_C"/>
    </vehicle>
    <vehicle id="r_luz_oba_A______3_small_truck.0" type="small_truck" depart="16307.15">
        <route edges="lane_entry_A 43346331#1.79 43346331#2 1316288013 304476606 4212603#3 4212603#4 1194954747#0 1194954747#1 1194954753 26825652#0 26825652#1 1194954756 1194954754 lane_exit_speed_E lane_exit_E"/>
    </vehicle>
    <vehicle id="r_luz_oba_A______4_car_aggr3.0" type="car_aggr3" depart="16674.36">
        <route edges="lane_entry_A 43346331#1.79 43346331#2 1316288013 304476606 4212603#3 4212603#4 1194954747#0 1194954747#1 1194954753 26825652#0 26825652#1 1194954756 1194954754 lane_exit_speed_E lane_exit_E"/>
    </vehicle>
    <vehicle id="r_luz_oba_A______4_car_aggr3.1" type="car_aggr3" depart="18002.03">
        <route edges="lane_entry_A 43346331#1.79 43346331#2 1316288013 304476606 4212603#3 4212603#4 1194954747#0 1194954747#1 1194954753 26825652#0 26825652#1 1194954756 1194954754 lane_exit_speed_E lane_exit_E"/>
    </vehicle>
    <vehicle id="r_and_alt_1_4_car_aggr1.0" type="car_aggr1" depart="18005.47">
        <route edges="lane_entry_E ppp -24765228 -1194954756 -1194954755 -26825652#0 -1194954753 -1194954747#1 -1194954747#0 4212603#5 -268051640#2 -268051640#1 lane_exit_speed_C lane_exit_C"/>
    </vehicle>
    <vehicle id="r_and_alt_1_4_small_truck.1" type="small_truck" depart="18115.06">
        <route edges="lane_entry_E ppp -24765228 -1194954756 -1194954755 -26825652#0 -1194954753 -1194954747#1 -1194954747#0 4212603#5 -268051640#2 -268051640#1 lane_exit_speed_C lane_exit_C"/>
    </vehicle>
    <vehicle id="r_oba_axs_A______5_car_aggr5.0" type="car_aggr5" depart="20354.99">
        <route edges="lane_entry_E ppp -24765228 -1194954756 -1194954755 -26825652#0 -1194954753 -1194954747#1 -1194954747#0 4212603#5 4212603#1 1255318896 4212611 1316288014 1255318897 803039921 lane_exit_speed_A lane_exit_A"/>
    </vehicle>
    <vehicle id="r_luz_oba_A______5_car_aggr2.0" type="car_aggr2" depart="20378.82">
        <route edges="lane_entry_A 43346331#1.79 43346331#2 1316288013 304476606 4212603#3 4212603#4 1194954747#0 1194954747#1 1194954753 26825652#0 26825652#1 1194954756 1194954754 lane_exit_speed_E lane_exit_E"/>
    </vehicle>
    <vehicle id="r_oba_axs_A______5_small_truck.0" type="small_truck" depart="20453.46">
        <route edges="lane_entry_E ppp -24765228 -1194954756 -1194954755 -26825652#0 -1194954753 -1194954747#1 -1194954747#0 4212603#5 4212603#1 1255318896 4212611 1316288014 1255318897 803039921 lane_exit_speed_A lane_exit_A"/>
    </vehicle>
    <vehicle id="r_oba_axs_A______5_car_aggr4.0" type="car_aggr4" depart="20459.85">
        <route edges="lane_entry_E ppp -24765228 -1194954756 -1194954755 -26825652#0 -1194954753 -1194954747#1 -1194954747#0 4212603#5 4212603#1 1255318896 4212611 1316288014 1255318897 803039921 lane_exit_speed_A lane_exit_A"/>
    </vehicle>
    <vehicle id="r_oba_axs_A______5_car_aggr3.0" type="car_aggr3" depart="20465.67">
        <route edges="lane_entry_E ppp -24765228 -1194954756 -1194954755 -26825652#0 -1194954753 -1194954747#1 -1194954747#0 4212603#5 4212603#1 1255318896 4212611 1316288014 1255318897 803039921 lane_exit_speed_A lane_exit_A"/>
    </vehicle>
    <vehicle id="r_luz_oba_A______5_car_aggr3.0" type="car_aggr3" depart="21174.68">
        <route edges="lane_entry_A 43346331#1.79 43346331#2 1316288013 304476606 4212603#3 4212603#4 1194954747#0 1194954747#1 1194954753 26825652#0 26825652#1 1194954756 1194954754 lane_exit_speed_E lane_exit_E"/>
    </vehicle>
    <vehicle id="r_luz_oba_A______5_small_truck.0" type="small_truck" depart="21861.05">
        <route edges="lane_entry_A 43346331#1.79 43346331#2 1316288013 304476606 4212603#3 4212603#4 1194954747#0 1194954747#1 1194954753 26825652#0 26825652#1 1194954756 1194954754 lane_exit_speed_E lane_exit_E"/>
    </vehicle>
    <vehicle id="r_luz_oba_A______5_car_aggr2.1" type="car_aggr2" depart="22343.01">
        <route edges="lane_entry_A 43346331#1.79 43346331#2 1316288013 304476606 4212603#3 4212603#4 1194954747#0 1194954747#1 1194954753 26825652#0 26825652#1 1194954756 1194954754 lane_exit_speed_E lane_exit_E"/>
    </vehicle>
    <vehicle id="r_alt_and_1_5_big_truck.0" type="big_truck" depart="22494.73">
        <route edges="lane_entry_C 268051640#1.35 268051640#1.56 268051640#2 4212603#1 4212603#2 4212603#3 4212603#4 1194954747#0 1194954747#1 1194954753 26825652#0 26825652#1 1194954756 1194954754 lane_exit_speed_E lane_exit_E"/>
    </vehicle>
    <vehicle id="r_oba_axs_A______5_car_aggr4.1" type="car_aggr4" depart="22599.36">
        <route edges="lane_entry_E ppp -24765228 -1194954756 -1194954755 -26825652#0 -1194954753 -1194954747#1 -1194954747#0 4212603#5 4212603#1 1255318896 4212611 1316288014 1255318897 803039921 lane_exit_speed_A lane_exit_A"/>
    </vehicle>
    <vehicle id="r_oba_axs_A______6_car_aggr5.0" type="car_aggr5" depart="22602.71">
        <route edges="lane_entry_E ppp -24765228 -1194954756 -1194954755 -26825652#0 -1194954753 -1194954747#1 -1194954747#0 4212603#5 4212603#1 1255318896 4212611 1316288014 1255318897 803039921 lane_exit_speed_A lane_exit_A"/>
    </vehicle>
    <vehicle id="r_oba_luz_A______6_car_aggr4.0" type="car_aggr4" depart="22869.93">
        <route edges="lane_entry_E ppp -24765228 -1194954756 -1194954755 -26825652#0 -1194954753 -1194954747#1 -1194954747#0 4212603#5 4212603#1 1255318896 4212611 1316288014 1255318897 803039921 lane_exit_speed_A lane_exit_A"/>
    </vehicle>
    <vehicle id="r_alt_and_1_5_car_aggr2.0" type="car_aggr2" depart="22949.20">
        <route edges="lane_entry_C 268051640#1.35 268051640#1.56 268051640#2 4212603#1 4212603#2 4212603#3 4212603#4 1194954747#0 1194954747#1 1194954753 26825652#0 26825652#1 1194954756 1194954754 lane_exit_speed_E lane_exit_E"/>
    </vehicle>
    <vehicle id="r_luz_oba_KS_____5_car_aggr4.0" type="car_aggr4" depart="22952.83">
        <route edges="lane_entry_C 268051640#1.35 268051640#1.56 268051640#2 4212603#1 4212603#2 4212603#3 4212603#4 1194954747#0 1194954747#1 1194954753 26825652#0 26825652#1 1194954756 1194954754 lane_exit_speed_E lane_exit_E"/>
    </vehicle>
    <vehicle id="r_alt_and_1_5_car_aggr3.0" type="car_aggr3" depart="22957.30">
        <route edges="lane_entry_C 268051640#1.35 268051640#1.56 268051640#2 4212603#1 4212603#2 4212603#3 4212603#4 1194954747#0 1194954747#1 1194954753 26825652#0 26825652#1 1194954756 1194954754 lane_exit_speed_E lane_exit_E"/>
    </vehicle>
    <vehicle id="r_oba_axs_A______6_car_aggr3.0" type="car_aggr3" depart="23051.40">
        <route edges="lane_entry_E ppp -24765228 -1194954756 -1194954755 -26825652#0 -1194954753 -1194954747#1 -1194954747#0 4212603#5 4212603#1 1255318896 4212611 1316288014 1255318897 803039921 lane_exit_speed_A lane_exit_A"/>
    </vehicle>
    <vehicle id="r_luz_oba_A______5_big_truck.0" type="big_truck" depart="23140.06">
        <route edges="lane_entry_A 43346331#1.79 43346331#2 1316288013 304476606 4212603#3 4212603#4 1194954747#0 1194954747#1 1194954753 26825652#0 26825652#1 1194954756 1194954754 lane_exit_speed_E lane_exit_E"/>
    </vehicle>
    <vehicle id="r_luz_oba_A______5_car_aggr4.0" type="car_aggr4" depart="23191.57">
        <route edges="lane_entry_A 43346331#1.79 43346331#2 1316288013 304476606 4212603#3 4212603#4 1194954747#0 1194954747#1 1194954753 26825652#0 26825652#1 1194954756 1194954754 lane_exit_speed_E lane_exit_E"/>
    </vehicle>
    <vehicle id="r_luz_oba_A______5_car_aggr1.0" type="car_aggr1" depart="23474.88">
        <route edges="lane_entry_A 43346331#1.79 43346331#2 1316288013 304476606 4212603#3 4212603#4 1194954747#0 1194954747#1 1194954753 26825652#0 26825652#1 1194954756 1194954754 lane_exit_speed_E lane_exit_E"/>
    </vehicle>
    <vehicle id="r_oba_luz_A______6_car_aggr3.0" type="car_aggr3" depart="23616.52">
        <route edges="lane_entry_E ppp -24765228 -1194954756 -1194954755 -26825652#0 -1194954753 -1194954747#1 -1194954747#0 4212603#5 4212603#1 1255318896 4212611 1316288014 1255318897 803039921 lane_exit_speed_A lane_exit_A"/>
    </vehicle>
    <vehicle id="r_luz_oba_A______6_car_aggr2.0" type="car_aggr2" depart="23698.88">
        <route edges="lane_entry_A 43346331#1.79 43346331#2 1316288013 304476606 4212603#3 4212603#4 1194954747#0 1194954747#1 1194954753 26825652#0 26825652#1 1194954756 1194954754 lane_exit_speed_E lane_exit_E"/>
    </vehicle>
    <vehicle id="r_luz_oba_A______6_car_aggr2.1" type="car_aggr2" depart="23794.21">
        <route edges="lane_entry_A 43346331#1.79 43346331#2 1316288013 304476606 4212603#3 4212603#4 1194954747#0 1194954747#1 1194954753 26825652#0 26825652#1 1194954756 1194954754 lane_exit_speed_E lane_exit_E"/>
    </vehicle>
    <vehicle id="r_luz_oba_A______6_car_aggr4.0" type="car_aggr4" depart="23854.80">
        <route edges="lane_entry_A 43346331#1.79 43346331#2 1316288013 304476606 4212603#3 4212603#4 1194954747#0 1194954747#1 1194954753 26825652#0 26825652#1 1194954756 1194954754 lane_exit_speed_E lane_exit_E"/>
    </vehicle>
    <vehicle id="r_oba_axs_A______6_big_truck.0" type="big_truck" depart="23891.66">
        <route edges="lane_entry_E ppp -24765228 -1194954756 -1194954755 -26825652#0 -1194954753 -1194954747#1 -1194954747#0 4212603#5 4212603#1 1255318896 4212611 1316288014 1255318897 803039921 lane_exit_speed_A lane_exit_A"/>
    </vehicle>
    <vehicle id="r_oba_axs_A______6_car_aggr3.1" type="car_aggr3" depart="23896.63">
        <route edges="lane_entry_E ppp -24765228 -1194954756 -1194954755 -26825652#0 -1194954753 -1194954747#1 -1194954747#0 4212603#5 4212603#1 1255318896 4212611 1316288014 1255318897 803039921 lane_exit_speed_A lane_exit_A"/>
    </vehicle>
    <vehicle id="r_oba_luz_A______6_car_aggr3.1" type="car_aggr3" depart="23900.99">
        <route edges="lane_entry_E ppp -24765228 -1194954756 -1194954755 -26825652#0 -1194954753 -1194954747#1 -1194954747#0 4212603#5 4212603#1 1255318896 4212611 1316288014 1255318897 803039921 lane_exit_speed_A lane_exit_A"/>
    </vehicle>
    <vehicle id="r_oba_axs_A______6_car_aggr1.0" type="car_aggr1" depart="23908.00">
        <route edges="lane_entry_E ppp -24765228 -1194954756 -1194954755 -26825652#0 -1194954753 -1194954747#1 -1194954747#0 4212603#5 4212603#1 1255318896 4212611 1316288014 1255318897 803039921 lane_exit_speed_A lane_exit_A"/>
    </vehicle>
    <vehicle id="r_oba_luz_A______6_car_aggr5.0" type="car_aggr5" depart="23911.33">
        <route edges="lane_entry_E ppp -24765228 -1194954756 -1194954755 -26825652#0 -1194954753 -1194954747#1 -1194954747#0 4212603#5 4212603#1 1255318896 4212611 1316288014 1255318897 803039921 lane_exit_speed_A lane_exit_A"/>
    </vehicle>
    <vehicle id="r_luz_oba_KS_____5_car_aggr3.0" type="car_aggr3" depart="24054.61">
        <route edges="lane_entry_C 268051640#1.35 268051640#1.56 268051640#2 4212603#1 4212603#2 4212603#3 4212603#4 1194954747#0 1194954747#1 1194954753 26825652#0 26825652#1 1194954756 1194954754 lane_exit_speed_E lane_exit_E"/>
    </vehicle>
    <vehicle id="r_oba_axs_A______6_car_aggr3.2" type="car_aggr3" depart="24240.38">
        <route edges="lane_entry_E ppp -24765228 -1194954756 -1194954755 -26825652#0 -1194954753 -1194954747#1 -1194954747#0 4212603#5 4212603#1 1255318896 4212611 1316288014 1255318897 803039921 lane_exit_speed_A lane_exit_A"/>
    </vehicle>
    <vehicle id="r_oba_luz_A______6_car_aggr4.1" type="car_aggr4" depart="24244.29">
        <route edges="lane_entry_E ppp -24765228 -1194954756 -1194954755 -26825652#0 -1194954753 -1194954747#1 -1194954747#0 4212603#5 4212603#1 1255318896 4212611 1316288014 1255318897 803039921 lane_exit_speed_A lane_exit_A"/>
    </vehicle>
    <vehicle id="r_oba_axs_A______6_car_aggr3.3" type="car_aggr3" depart="24253.58">
        <route edges="lane_entry_E ppp -24765228 -1194954756 -1194954755 -26825652#0 -1194954753 -1194954747#1 -1194954747#0 4212603#5 4212603#1 1255318896 4212611 1316288014 1255318897 803039921 lane_exit_speed_A lane_exit_A"/>
    </vehicle>
    <vehicle id="r_luz_oba_A______6_car_aggr4.1" type="car_aggr4" depart="24511.48">
        <route edges="lane_entry_A 43346331#1.79 43346331#2 1316288013 304476606 4212603#3 4212603#4 1194954747#0 1194954747#1 1194954753 26825652#0 26825652#1 1194954756 1194954754 lane_exit_speed_E lane_exit_E"/>
    </vehicle>
    <vehicle id="r_luz_oba_A______6_car_aggr2.2" type="car_aggr2" depart="24636.76">
        <route edges="lane_entry_A 43346331#1.79 43346331#2 1316288013 304476606 4212603#3 4212603#4 1194954747#0 1194954747#1 1194954753 26825652#0 26825652#1 1194954756 1194954754 lane_exit_speed_E lane_exit_E"/>
    </vehicle>
    <vehicle id="r_luz_oba_A______6_car_aggr3.0" type="car_aggr3" depart="24641.00">
        <route edges="lane_entry_A 43346331#1.79 43346331#2 1316288013 304476606 4212603#3 4212603#4 1194954747#0 1194954747#1 1194954753 26825652#0 26825652#1 1194954756 1194954754 lane_exit_speed_E lane_exit_E"/>
    </vehicle>
    <vehicle id="r_luz_oba_A______6_car_aggr5.0" type="car_aggr5" depart="24677.45">
        <route edges="lane_entry_A 43346331#1.79 43346331#2 1316288013 304476606 4212603#3 4212603#4 1194954747#0 1194954747#1 1194954753 26825652#0 26825652#1 1194954756 1194954754 lane_exit_speed_E lane_exit_E"/>
    </vehicle>
    <vehicle id="r_oba_luz_A______6_motorbike.0" type="motorbike" depart="24679.15">
        <route edges="lane_entry_E ppp -24765228 -1194954756 -1194954755 -26825652#0 -1194954753 -1194954747#1 -1194954747#0 4212603#5 4212603#1 1255318896 4212611 1316288014 1255318897 803039921 lane_exit_speed_A lane_exit_A"/>
    </vehicle>