<?xml version="1.0" encoding="UTF-8"?>

<!-- generated on 2025-05-13 10:45:12 by Eclipse SUMO netedit Version 1.22.0
<neteditConfiguration xmlns:xsi="http://www.w3.org/2001/XMLSchema-instance" xsi:noNamespaceSchemaLocation="http://sumo.dlr.de/xsd/neteditConfiguration.xsd">

    <input>
        <sumocfg-file value="/home/epsilon/Documents/bachelor_thesis/thesis_2025_eth_cedric_zeiter/simulation/villages/Goeschenen/goeschenen.sumocfg"/>
        <additional-files value="/home/epsilon/Documents/bachelor_thesis/thesis_2025_eth_cedric_zeiter/simulation/villages/Goeschenen/goeschenen.add.xml"/>
        <route-files value="/home/epsilon/Documents/bachelor_thesis/thesis_2025_eth_cedric_zeiter/simulation/villages/Goeschenen/Erstfeld/demand.rou.xml"/>
        <sumo-net-file value="/home/epsilon/Documents/bachelor_thesis/thesis_2025_eth_cedric_zeiter/simulation/villages/Goeschenen/osm_original.net.xml"/>
    </input>

    <output>
        <output-file value="/home/epsilon/Documents/bachelor_thesis/thesis_2025_eth_cedric_zeiter/simulation/villages/Goeschenen/osm_original.net.xml"/>
        <output.street-names value="true"/>
    </output>

    <processing>
        <geometry.min-radius.fix.railways value="false"/>
        <geometry.avoid-overlap value="false"/>
        <geometry.max-grade.fix value="false"/>
        <offset.disable-normalization value="true"/>
        <lefthand value="0"/>
    </processing>

    <junctions>
        <no-turnarounds value="true"/>
        <junctions.corner-detail value="5"/>
        <junctions.limit-turn-speed value="5.50"/>
        <rectangular-lane-cut value="0"/>
    </junctions>

    <pedestrian>
        <walkingareas value="0"/>
    </pedestrian>

</neteditConfiguration>
-->

<net version="1.20" junctionCornerDetail="5" limitTurnSpeed="5.50" avoidOverlap="0" xmlns:xsi="http://www.w3.org/2001/XMLSchema-instance" xsi:noNamespaceSchemaLocation="http://sumo.dlr.de/xsd/net_file.xsd">

    <location netOffset="-455283.56,-5149384.03" convBoundary="12442.86,17961.45,13636.96,20057.43" origBoundary="8.309256,46.497869,8.861170,47.051866" projParameter="+proj=utm +zone=32 +ellps=WGS84 +datum=WGS84 +units=m +no_defs"/>

    <type id="highway.footway" priority="1" numLanes="1" speed="2.78" allow="pedestrian" oneway="1" width="2.00"/>
    <type id="highway.motorway" priority="14" numLanes="2" speed="39.44" allow="private emergency authority army vip passenger hov taxi bus coach delivery truck trailer motorcycle evehicle custom1 custom2" oneway="1"/>
    <type id="highway.motorway_link" priority="9" numLanes="1" speed="22.22" allow="private emergency authority army vip passenger hov taxi bus coach delivery truck trailer motorcycle evehicle custom1 custom2" oneway="1"/>
    <type id="highway.path" priority="1" numLanes="1" speed="5.56" allow="pedestrian bicycle" oneway="0" width="2.00"/>
    <type id="highway.primary" priority="12" numLanes="2" speed="27.78" disallow="tram rail_urban rail rail_electric rail_fast ship" oneway="0"/>
    <type id="highway.residential" priority="3" numLanes="1" speed="13.89" disallow="tram rail_urban rail rail_electric rail_fast ship" oneway="0"/>
    <type id="highway.service" priority="1" numLanes="1" speed="5.56" allow="pedestrian delivery bicycle" oneway="0"/>
    <type id="highway.tertiary" priority="10" numLanes="1" speed="22.22" disallow="tram rail_urban rail rail_electric rail_fast ship" oneway="0"/>
    <type id="highway.trunk" priority="13" numLanes="2" speed="27.78" disallow="pedestrian bicycle tram rail_urban rail rail_electric rail_fast ship" oneway="0"/>
    <type id="highway.trunk_link" priority="8" numLanes="1" speed="22.22" disallow="pedestrian bicycle tram rail_urban rail rail_electric rail_fast ship" oneway="0"/>
    <type id="highway.unclassified" priority="4" numLanes="1" speed="13.89" disallow="tram rail_urban rail rail_electric rail_fast ship" oneway="0"/>

    <edge id=":10665959831_0" function="internal">
        <lane id=":10665959831_0_0" index="0" disallow="pedestrian bicycle tram rail_urban rail rail_electric rail_fast ship cable_car subway" speed="22.22" length="0.30" shape="13602.35,19602.21 13602.43,19602.49"/>
    </edge>
    <edge id=":11042732290_0" function="internal">
        <lane id=":11042732290_0_0" index="0" allow="private emergency authority army vip passenger hov taxi bus coach delivery truck trailer motorcycle evehicle custom1 custom2" speed="19.45" length="0.10" shape="13602.60,19652.51 13602.60,19652.51"/>
    </edge>
    <edge id=":11091328053_0" function="internal">
        <lane id=":11091328053_0_0" index="0" disallow="tram rail_urban rail rail_electric rail_fast ship cable_car subway" speed="19.45" length="0.30" shape="13548.22,19258.81 13548.18,19259.11"/>
    </edge>
    <edge id=":11091328053_1" function="internal">
        <lane id=":11091328053_1_0" index="0" disallow="tram rail_urban rail rail_electric rail_fast ship cable_car subway" speed="19.45" length="0.30" shape="13545.00,19258.77 13545.03,19258.47"/>
    </edge>
    <edge id=":11091328163_0" function="internal">
        <lane id=":11091328163_0_0" index="0" disallow="tram rail_urban rail rail_electric rail_fast ship cable_car subway" speed="16.67" length="7.85" shape="13467.61,18634.38 13463.05,18627.98"/>
    </edge>
    <edge id=":11091328163_1" function="internal">
        <lane id=":11091328163_1_0" index="0" disallow="tram rail_urban rail rail_electric rail_fast ship cable_car subway" speed="16.67" length="8.40" shape="13465.62,18626.08 13467.50,18627.77 13469.30,18628.38 13471.08,18629.01 13472.88,18630.76"/>
        <lane id=":11091328163_1_1" index="1" disallow="tram rail_urban rail rail_electric rail_fast ship cable_car subway" speed="16.67" length="8.40" shape="13465.62,18626.08 13470.25,18632.57"/>
    </edge>
    <edge id=":11091328197_0" function="internal">
        <lane id=":11091328197_0_0" index="0" disallow="tram rail_urban rail rail_electric rail_fast ship cable_car subway" speed="16.67" length="8.00" shape="13166.53,18265.58 13159.25,18262.27"/>
    </edge>
    <edge id=":11091328197_1" function="internal">
        <lane id=":11091328197_1_0" index="0" disallow="tram rail_urban rail rail_electric rail_fast ship cable_car subway" speed="16.67" length="8.24" shape="13160.64,18259.39 13163.00,18259.98 13164.81,18259.61 13166.63,18259.21 13169.05,18259.70"/>
        <lane id=":11091328197_1_1" index="1" disallow="tram rail_urban rail rail_electric rail_fast ship cable_car subway" speed="16.67" length="8.24" shape="13160.64,18259.39 13167.79,18262.64"/>
    </edge>
    <edge id=":11091328227_0" function="internal">
        <lane id=":11091328227_0_0" index="0" disallow="tram rail_urban rail rail_electric rail_fast ship cable_car subway" speed="19.45" length="0.10" shape="13087.25,18211.16 13087.25,18211.16"/>
    </edge>
    <edge id=":11091328227_1" function="internal">
        <lane id=":11091328227_1_0" index="0" disallow="tram rail_urban rail rail_electric rail_fast ship cable_car subway" speed="19.45" length="0.10" shape="13089.17,18208.60 13089.17,18208.60"/>
    </edge>
    <edge id=":11248178_0" function="internal">
        <lane id=":11248178_0_0" index="0" disallow="pedestrian bicycle tram rail_urban rail rail_electric rail_fast ship cable_car subway" speed="22.22" length="7.91" shape="13564.16,19484.14 13562.55,19476.40"/>
    </edge>
    <edge id=":11248179_0" function="internal">
        <lane id=":11248179_0_0" index="0" disallow="pedestrian bicycle tram rail_urban rail rail_electric rail_fast ship cable_car subway" speed="22.22" length="8.30" shape="13572.74,19478.33 13573.80,19480.60 13575.21,19481.86 13576.59,19483.12 13577.54,19485.42"/>
        <lane id=":11248179_0_1" index="1" disallow="pedestrian bicycle tram rail_urban rail rail_electric rail_fast ship cable_car subway" speed="22.22" length="8.30" shape="13572.74,19478.33 13574.39,19486.02"/>
    </edge>
    <edge id=":11248181_0" function="internal">
        <lane id=":11248181_0_0" index="0" disallow="pedestrian bicycle tram rail_urban rail rail_electric rail_fast ship cable_car subway" speed="22.22" length="0.31" shape="13535.30,19379.17 13535.22,19378.87"/>
    </edge>
    <edge id=":11248181_1" function="internal">
        <lane id=":11248181_1_0" index="0" disallow="pedestrian bicycle tram rail_urban rail rail_electric rail_fast ship cable_car subway" speed="22.22" length="0.10" shape="13538.30,19377.99 13538.31,19378.08"/>
    </edge>
    <edge id=":11248188_0" function="internal">
        <lane id=":11248188_0_0" index="0" allow="private emergency authority army vip passenger hov taxi bus coach delivery truck trailer motorcycle evehicle custom1 custom2" speed="16.67" length="6.31" shape="13590.02,19610.35 13592.80,19616.02"/>
    </edge>
    <edge id=":11248188_1" function="internal">
        <lane id=":11248188_1_0" index="0" allow="private emergency authority army vip passenger hov taxi bus coach delivery truck trailer motorcycle evehicle custom1 custom2" speed="16.67" length="6.23" shape="13587.23,19611.92 13588.10,19613.55 13588.61,19614.71 13589.04,19615.90 13589.67,19617.64"/>
    </edge>
    <edge id=":11251578903_0" function="internal">
        <lane id=":11251578903_0_0" index="0" allow="private emergency authority army vip passenger hov taxi bus coach delivery truck trailer motorcycle evehicle custom1 custom2" speed="16.67" length="7.95" shape="13553.97,19523.22 13554.57,19525.44 13555.37,19526.85 13556.23,19528.25 13556.99,19530.45"/>
        <lane id=":11251578903_0_1" index="1" allow="private emergency authority army vip passenger hov taxi bus coach delivery truck trailer motorcycle evehicle custom1 custom2" speed="16.67" length="7.95" shape="13553.97,19523.22 13554.08,19525.57 13553.81,19527.21 13553.59,19528.84 13553.87,19531.17"/>
    </edge>
    <edge id=":11251578911_0" function="internal">
        <lane id=":11251578911_0_0" index="0" allow="private emergency authority army vip passenger hov taxi bus coach delivery truck trailer motorcycle evehicle custom1 custom2" speed="19.45" length="0.29" shape="13526.66,19350.31 13526.64,19350.59"/>
    </edge>
    <edge id=":11558458276_0" function="internal">
        <lane id=":11558458276_0_0" index="0" disallow="tram rail_urban rail rail_electric rail_fast ship cable_car subway" speed="16.67" length="0.30" shape="13516.67,19013.15 13516.62,19012.85"/>
    </edge>
    <edge id=":11558458276_1" function="internal">
        <lane id=":11558458276_1_0" index="0" disallow="tram rail_urban rail rail_electric rail_fast ship cable_car subway" speed="3.65" length="2.34" shape="13516.67,19013.15 13517.25,19011.83 13517.98,19011.30"/>
    </edge>
    <edge id=":11558458276_4" function="internal">
        <lane id=":11558458276_4_0" index="0" disallow="tram rail_urban rail rail_electric rail_fast ship cable_car subway" speed="3.65" length="2.34" shape="13517.98,19011.30 13518.83,19011.56 13519.82,19012.61"/>
    </edge>
    <edge id=":11558458276_2" function="internal">
        <lane id=":11558458276_2_0" index="0" disallow="tram rail_urban rail rail_electric rail_fast ship cable_car subway" speed="16.67" length="0.30" shape="13519.77,19012.31 13519.82,19012.61"/>
    </edge>
    <edge id=":11558458276_3" function="internal">
        <lane id=":11558458276_3_0" index="0" disallow="tram rail_urban rail rail_electric rail_fast ship cable_car subway" speed="3.65" length="2.34" shape="13519.77,19012.31 13519.19,19013.63 13518.46,19014.16"/>
    </edge>
    <edge id=":11558458276_5" function="internal">
        <lane id=":11558458276_5_0" index="0" disallow="tram rail_urban rail rail_electric rail_fast ship cable_car subway" speed="3.65" length="2.34" shape="13518.46,19014.16 13517.61,19013.90 13516.62,19012.85"/>
    </edge>
    <edge id=":11585101827_0" function="internal">
        <lane id=":11585101827_0_0" index="0" allow="bus bicycle" speed="11.11" length="0.30" shape="13312.65,18957.65 13312.58,18957.35"/>
    </edge>
    <edge id=":11585101827_1" function="internal">
        <lane id=":11585101827_1_0" index="0" disallow="tram rail_urban rail rail_electric rail_fast ship cable_car subway" speed="3.65" length="2.34" shape="13312.65,18957.65 13313.18,18956.31 13313.88,18955.75"/>
    </edge>
    <edge id=":11585101827_3" function="internal">
        <lane id=":11585101827_3_0" index="0" disallow="tram rail_urban rail rail_electric rail_fast ship cable_car subway" speed="3.65" length="2.34" shape="13313.88,18955.75 13314.74,18955.98 13315.78,18956.98"/>
    </edge>
    <edge id=":11585101827_2" function="internal">
        <lane id=":11585101827_2_0" index="0" disallow="tram rail_urban rail rail_electric rail_fast ship cable_car subway" speed="11.11" length="0.30" shape="13315.71,18956.69 13315.78,18956.98"/>
    </edge>
    <edge id=":1163006205_0" function="internal">
        <lane id=":1163006205_0_0" index="0" disallow="tram rail_urban rail rail_electric rail_fast ship cable_car subway" speed="13.89" length="0.30" shape="13435.40,19098.36 13435.38,19098.06"/>
    </edge>
    <edge id=":1163006205_1" function="internal">
        <lane id=":1163006205_1_0" index="0" disallow="tram rail_urban rail rail_electric rail_fast ship cable_car subway" speed="13.89" length="0.19" shape="13438.57,19097.90 13438.58,19098.09"/>
    </edge>
    <edge id=":1163006316_0" function="internal">
        <lane id=":1163006316_0_0" index="0" disallow="tram rail_urban rail rail_electric rail_fast ship cable_car subway" speed="22.22" length="0.31" shape="13562.63,19346.11 13562.57,19345.81"/>
    </edge>
    <edge id=":1163006316_1" function="internal">
        <lane id=":1163006316_1_0" index="0" disallow="tram rail_urban rail rail_electric rail_fast ship cable_car subway" speed="22.22" length="0.28" shape="13565.72,19345.24 13565.77,19345.51"/>
    </edge>
    <edge id=":11669568030_0" function="internal">
        <lane id=":11669568030_0_0" index="0" disallow="tram rail_urban rail rail_electric rail_fast ship cable_car subway" speed="13.89" length="0.31" shape="13265.63,19103.76 13265.39,19103.58"/>
    </edge>
    <edge id=":11669568030_1" function="internal">
        <lane id=":11669568030_1_0" index="0" disallow="tram rail_urban rail rail_electric rail_fast ship cable_car subway" speed="13.89" length="0.29" shape="13267.32,19101.02 13267.55,19101.20"/>
    </edge>
    <edge id=":12139541166_0" function="internal">
        <lane id=":12139541166_0_0" index="0" disallow="tram rail_urban rail rail_electric rail_fast ship cable_car subway" speed="18.05" length="0.31" shape="13213.28,18609.86 13213.22,18609.56"/>
    </edge>
    <edge id=":12139541166_1" function="internal">
        <lane id=":12139541166_1_0" index="0" disallow="tram rail_urban rail rail_electric rail_fast ship cable_car subway" speed="18.05" length="0.29" shape="13216.37,18608.99 13216.42,18609.27"/>
    </edge>
    <edge id=":12139986896_0" function="internal">
        <lane id=":12139986896_0_0" index="0" allow="pedestrian bicycle" speed="2.89" length="2.92" width="2.00" shape="13012.30,18901.52 13011.94,18900.70 13012.00,18900.14 13012.48,18899.86 13013.38,18899.84"/>
    </edge>
    <edge id=":1217494981_0" function="internal">
        <lane id=":1217494981_0_0" index="0" disallow="pedestrian bicycle tram rail_urban rail rail_electric rail_fast ship cable_car subway" speed="13.21" length="7.66" shape="13524.70,19317.17 13524.74,19314.93 13524.48,19313.39 13523.88,19311.92 13522.87,19309.89"/>
    </edge>
    <edge id=":1217494981_1" function="internal">
        <lane id=":1217494981_1_0" index="0" disallow="tram rail_urban rail rail_electric rail_fast ship cable_car subway" speed="10.72" length="7.80" shape="13528.61,19314.80 13526.52,19313.79 13525.09,19312.97 13523.99,19311.85 13522.87,19309.89"/>
    </edge>
    <edge id=":1217498215_0" function="internal">
        <lane id=":1217498215_0_0" index="0" disallow="tram rail_urban rail rail_electric rail_fast ship cable_car subway" speed="13.89" length="0.13" shape="13415.58,19150.11 13415.46,19150.16"/>
    </edge>
    <edge id=":1217498215_1" function="internal">
        <lane id=":1217498215_1_0" index="0" disallow="tram rail_urban rail rail_electric rail_fast ship cable_car subway" speed="13.89" length="0.40" shape="13414.23,19147.20 13414.61,19147.06"/>
    </edge>
    <edge id=":1217506171_0" function="internal">
        <lane id=":1217506171_0_0" index="0" disallow="tram rail_urban rail rail_electric rail_fast ship cable_car subway" speed="11.74" length="13.81" shape="13438.23,19152.07 13435.67,19149.97 13432.72,19148.50 13429.37,19147.67 13425.63,19147.47"/>
    </edge>
    <edge id=":1217506171_1" function="internal">
        <lane id=":1217506171_1_0" index="0" disallow="tram rail_urban rail rail_electric rail_fast ship cable_car subway" speed="9.96" length="3.01" shape="13438.23,19152.07 13436.32,19149.75"/>
    </edge>
    <edge id=":1217506171_2" function="internal">
        <lane id=":1217506171_2_0" index="0" disallow="tram rail_urban rail rail_electric rail_fast ship cable_car subway" speed="3.78" length="1.69" shape="13438.23,19152.07 13437.46,19150.77 13437.46,19150.60"/>
    </edge>
    <edge id=":1217506171_9" function="internal">
        <lane id=":1217506171_9_0" index="0" disallow="tram rail_urban rail rail_electric rail_fast ship cable_car subway" speed="9.96" length="10.81" shape="13436.32,19149.75 13435.61,19148.89 13434.00,19145.76 13433.39,19142.69 13433.79,19139.67"/>
    </edge>
    <edge id=":1217506171_10" function="internal">
        <lane id=":1217506171_10_0" index="0" disallow="tram rail_urban rail rail_electric rail_fast ship cable_car subway" speed="3.78" length="3.21" shape="13437.46,19150.60 13437.45,19149.83 13438.19,19149.26 13439.69,19149.05"/>
    </edge>
    <edge id=":1217506171_3" function="internal">
        <lane id=":1217506171_3_0" index="0" disallow="tram rail_urban rail rail_electric rail_fast ship cable_car subway" speed="7.70" length="9.57" shape="13436.85,19140.59 13436.45,19143.06 13436.78,19145.29 13437.87,19147.29 13439.69,19149.05"/>
    </edge>
    <edge id=":1217506171_4" function="internal">
        <lane id=":1217506171_4_0" index="0" disallow="tram rail_urban rail rail_electric rail_fast ship cable_car subway" speed="9.12" length="14.13" shape="13436.85,19140.59 13435.41,19143.49 13433.06,19145.61 13429.80,19146.93 13425.63,19147.47"/>
    </edge>
    <edge id=":1217506171_5" function="internal">
        <lane id=":1217506171_5_0" index="0" disallow="tram rail_urban rail rail_electric rail_fast ship cable_car subway" speed="3.65" length="4.67" shape="13436.85,19140.59 13435.74,19141.51 13434.86,19141.66 13434.21,19141.05 13433.79,19139.67"/>
    </edge>
    <edge id=":1217506171_6" function="internal">
        <lane id=":1217506171_6_0" index="0" disallow="tram rail_urban rail rail_electric rail_fast ship cable_car subway" speed="7.43" length="9.12" shape="13426.63,19144.24 13429.27,19143.89 13431.34,19143.01 13432.85,19141.60 13433.79,19139.67"/>
    </edge>
    <edge id=":1217506171_7" function="internal">
        <lane id=":1217506171_7_0" index="0" disallow="tram rail_urban rail rail_electric rail_fast ship cable_car subway" speed="13.89" length="14.19" shape="13426.63,19144.24 13430.22,19144.50 13433.53,19145.46 13436.66,19147.02 13439.69,19149.05"/>
    </edge>
    <edge id=":1217506171_8" function="internal">
        <lane id=":1217506171_8_0" index="0" disallow="tram rail_urban rail rail_electric rail_fast ship cable_car subway" speed="3.72" length="1.41" shape="13426.63,19144.24 13427.52,19145.34"/>
    </edge>
    <edge id=":1217506171_11" function="internal">
        <lane id=":1217506171_11_0" index="0" disallow="tram rail_urban rail rail_electric rail_fast ship cable_car subway" speed="3.72" length="3.53" shape="13427.52,19145.34 13427.59,19145.42 13427.74,19146.36 13427.09,19147.04 13425.63,19147.47"/>
    </edge>
    <edge id=":1217511861_0" function="internal">
        <lane id=":1217511861_0_0" index="0" disallow="tram rail_urban rail rail_electric rail_fast ship cable_car subway" speed="16.67" length="0.20" shape="13116.90,18266.26 13116.84,18266.27 13116.80,18266.27 13116.76,18266.28 13116.70,18266.29"/>
    </edge>
    <edge id=":1217511861_1" function="internal">
        <lane id=":1217511861_1_0" index="0" disallow="tram rail_urban rail rail_electric rail_fast ship cable_car subway" speed="16.67" length="0.60" shape="13116.09,18263.15 13116.26,18263.11 13116.38,18263.10 13116.50,18263.08 13116.68,18263.07"/>
    </edge>
    <edge id=":12183215960_0" function="internal">
        <lane id=":12183215960_0_0" index="0" disallow="pedestrian bicycle tram rail_urban rail rail_electric rail_fast ship cable_car subway" speed="11.11" length="10.54" shape="13617.90,19821.75 13617.20,19832.26"/>
    </edge>
    <edge id=":12183215960_1" function="internal">
        <lane id=":12183215960_1_0" index="0" allow="delivery" speed="6.52" length="9.22" shape="13617.90,19821.75 13617.49,19824.99 13616.66,19827.27 13615.41,19828.58 13613.74,19828.93"/>
    </edge>
    <edge id=":12183215960_2" function="internal">
        <lane id=":12183215960_2_0" index="0" allow="delivery" speed="8.33" length="7.49" shape="13614.89,19825.27 13615.51,19827.39 13616.38,19828.76 13617.08,19830.14 13617.20,19832.26"/>
    </edge>
    <edge id=":12183215960_3" function="internal">
        <lane id=":12183215960_3_0" index="0" allow="pedestrian delivery bicycle" speed="4.97" length="5.59" shape="13614.89,19825.27 13615.98,19826.62 13616.14,19827.68 13615.40,19828.45 13613.74,19828.93"/>
    </edge>
    <edge id=":12183215961_0" function="internal">
        <lane id=":12183215961_0_0" index="0" disallow="pedestrian bicycle tram rail_urban rail rail_electric rail_fast ship cable_car subway" speed="11.11" length="0.93" shape="13609.92,19812.13 13609.76,19812.37 13609.61,19812.46 13609.44,19812.38 13609.28,19812.14"/>
    </edge>
    <edge id=":12183215961_1" function="internal">
        <lane id=":12183215961_1_0" index="0" allow="delivery" speed="6.68" length="20.26" shape="13609.92,19812.13 13609.84,19804.92 13609.99,19798.05 13610.39,19794.38 13611.09,19796.76"/>
    </edge>
    <edge id=":12183215961_2" function="internal">
        <lane id=":12183215961_2_0" index="0" allow="pedestrian delivery bicycle" speed="3.65" length="4.67" shape="13607.91,19797.18 13608.55,19795.89 13609.29,19795.38 13610.13,19795.67 13611.09,19796.76"/>
    </edge>
    <edge id=":12183215961_3" function="internal">
        <lane id=":12183215961_3_0" index="0" allow="delivery" speed="5.89" length="15.03" shape="13607.91,19797.18 13608.53,19802.13 13608.97,19806.27 13609.22,19809.61 13609.28,19812.14"/>
    </edge>
    <edge id=":12183215963_0" function="internal">
        <lane id=":12183215963_0_0" index="0" disallow="pedestrian bicycle tram rail_urban rail rail_electric rail_fast ship cable_car subway" speed="11.11" length="0.30" shape="13547.02,19847.99 13546.90,19847.71"/>
    </edge>
    <edge id=":12183215964_0" function="internal">
        <lane id=":12183215964_0_0" index="0" disallow="pedestrian bicycle tram rail_urban rail rail_electric rail_fast ship cable_car subway" speed="11.11" length="0.30" shape="13539.83,19851.33 13539.73,19851.05"/>
    </edge>
    <edge id=":12559423305_0" function="internal">
        <lane id=":12559423305_0_0" index="0" allow="pedestrian delivery bicycle" speed="3.65" length="4.67" shape="13480.12,19156.22 13480.56,19154.84 13481.21,19154.23 13482.09,19154.39 13483.20,19155.32"/>
    </edge>
    <edge id=":12559423306_0" function="internal">
        <lane id=":12559423306_0_0" index="0" allow="pedestrian delivery bicycle" speed="3.65" length="4.67" shape="13512.70,19288.28 13512.23,19289.64 13511.56,19290.24 13510.68,19290.05 13509.60,19289.10"/>
    </edge>
    <edge id=":14612343_0" function="internal">
        <lane id=":14612343_0_0" index="0" disallow="pedestrian bicycle tram rail_urban rail rail_electric rail_fast ship cable_car subway" speed="22.22" length="3.02" shape="13572.21,19553.85 13571.85,19550.85"/>
    </edge>
    <edge id=":14612343_1" function="internal">
        <lane id=":14612343_1_0" index="0" disallow="pedestrian bicycle tram rail_urban rail rail_electric rail_fast ship cable_car subway" speed="22.22" length="2.95" shape="13575.40,19553.40 13575.03,19550.47"/>
    </edge>
    <edge id=":14612345_0" function="internal">
        <lane id=":14612345_0_0" index="0" allow="private emergency authority army vip passenger hov taxi bus coach delivery truck trailer motorcycle evehicle custom1 custom2" speed="22.22" length="0.30" shape="13589.31,19750.61 13589.29,19750.91"/>
    </edge>
    <edge id=":1908199193_0" function="internal">
        <lane id=":1908199193_0_0" index="0" disallow="tram rail_urban rail rail_electric rail_fast ship cable_car subway" speed="13.89" length="15.96" shape="12887.46,19030.18 12883.58,19030.37 12879.54,19030.93 12875.52,19031.69 12871.70,19032.51"/>
    </edge>
    <edge id=":1908199193_1" function="internal">
        <lane id=":1908199193_1_0" index="0" disallow="tram rail_urban rail rail_electric rail_fast ship cable_car subway" speed="13.89" length="3.14" shape="12887.46,19030.18 12884.37,19029.62"/>
    </edge>
    <edge id=":1908199193_2" function="internal">
        <lane id=":1908199193_2_0" index="0" disallow="tram rail_urban rail rail_electric rail_fast ship cable_car subway" speed="3.65" length="1.44" shape="12887.46,19030.18 12886.27,19029.37"/>
    </edge>
    <edge id=":1908199193_9" function="internal">
        <lane id=":1908199193_9_0" index="0" disallow="tram rail_urban rail rail_electric rail_fast ship cable_car subway" speed="13.89" length="13.74" shape="12884.37,19029.62 12883.56,19029.47 12879.54,19027.78 12875.65,19025.60 12872.16,19023.46"/>
    </edge>
    <edge id=":1908199193_10" function="internal">
        <lane id=":1908199193_10_0" index="0" disallow="tram rail_urban rail rail_electric rail_fast ship cable_car subway" speed="3.65" length="3.23" shape="12886.27,19029.37 12885.88,19028.56 12886.29,19027.77 12887.49,19026.98"/>
    </edge>
    <edge id=":1908199193_3" function="internal">
        <lane id=":1908199193_3_0" index="0" disallow="tram rail_urban rail rail_electric rail_fast ship cable_car subway" speed="13.89" length="15.04" shape="12873.97,19020.82 12877.19,19022.87 12880.46,19024.86 12883.87,19026.36 12887.49,19026.98"/>
    </edge>
    <edge id=":1908199193_4" function="internal">
        <lane id=":1908199193_4_0" index="0" disallow="tram rail_urban rail rail_electric rail_fast ship cable_car subway" speed="7.45" length="19.68" shape="12873.97,19020.82 12878.92,19024.65 12880.19,19027.87 12877.78,19030.49 12871.70,19032.51"/>
    </edge>
    <edge id=":1908199193_5" function="internal">
        <lane id=":1908199193_5_0" index="0" disallow="tram rail_urban rail rail_electric rail_fast ship cable_car subway" speed="3.65" length="4.68" shape="12873.97,19020.82 12874.51,19022.16 12874.39,19023.05 12873.60,19023.48 12872.16,19023.46"/>
    </edge>
    <edge id=":1908199193_6" function="internal">
        <lane id=":1908199193_6_0" index="0" disallow="tram rail_urban rail rail_electric rail_fast ship cable_car subway" speed="5.50" length="9.97" shape="12871.02,19029.38 12874.10,19028.36 12875.31,19027.03 12874.66,19025.40 12872.16,19023.46"/>
    </edge>
    <edge id=":1908199193_7" function="internal">
        <lane id=":1908199193_7_0" index="0" disallow="tram rail_urban rail rail_electric rail_fast ship cable_car subway" speed="13.89" length="16.67" shape="12871.02,19029.38 12874.96,19028.55 12879.22,19027.77 12883.50,19027.19 12887.49,19026.98"/>
    </edge>
    <edge id=":1908199193_8" function="internal">
        <lane id=":1908199193_8_0" index="0" disallow="tram rail_urban rail rail_electric rail_fast ship cable_car subway" speed="3.65" length="1.44" shape="12871.02,19029.38 12872.37,19029.91"/>
    </edge>
    <edge id=":1908199193_11" function="internal">
        <lane id=":1908199193_11_0" index="0" disallow="tram rail_urban rail rail_electric rail_fast ship cable_car subway" speed="3.65" length="3.23" shape="12872.37,19029.91 12872.93,19030.61 12872.71,19031.47 12871.70,19032.51"/>
    </edge>
    <edge id=":266885671_0" function="internal">
        <lane id=":266885671_0_0" index="0" disallow="tram rail_urban rail rail_electric rail_fast ship cable_car subway" speed="13.89" length="0.37" shape="13098.69,19014.79 13098.38,19014.99"/>
    </edge>
    <edge id=":266885671_1" function="internal">
        <lane id=":266885671_1_0" index="0" disallow="tram rail_urban rail rail_electric rail_fast ship cable_car subway" speed="13.89" length="0.12" shape="13096.73,19012.25 13096.83,19012.18"/>
    </edge>
    <edge id=":266885677_0" function="internal">
        <lane id=":266885677_0_0" index="0" disallow="tram rail_urban rail rail_electric rail_fast ship cable_car subway" speed="13.89" length="14.42" shape="12919.07,19039.06 12905.45,19034.33"/>
    </edge>
    <edge id=":266885677_1" function="internal">
        <lane id=":266885677_1_0" index="0" disallow="tram rail_urban rail rail_electric rail_fast ship cable_car subway" speed="7.90" length="4.12" shape="12919.07,19039.06 12915.53,19037.24 12915.44,19037.13"/>
    </edge>
    <edge id=":266885677_2" function="internal">
        <lane id=":266885677_2_0" index="0" disallow="tram rail_urban rail rail_electric rail_fast ship cable_car subway" speed="3.65" length="1.44" shape="12919.07,19039.06 12918.20,19037.91"/>
    </edge>
    <edge id=":266885677_9" function="internal">
        <lane id=":266885677_9_0" index="0" disallow="tram rail_urban rail rail_electric rail_fast ship cable_car subway" speed="7.90" length="10.29" shape="12915.44,19037.13 12913.50,19034.73 12912.97,19031.55 12913.95,19027.69"/>
    </edge>
    <edge id=":266885677_10" function="internal">