<?xml version="1.0" encoding="UTF-8"?>

<!-- generated on 2025-05-11 22:50:14 by Eclipse SUMO netedit Version 1.23.1
-->

<additional xmlns:xsi="http://www.w3.org/2001/XMLSchema-instance" xsi:noNamespaceSchemaLocation="http://sumo.dlr.de/xsd/additional_file.xsd">
    <!-- Shapes -->
    <poly id="po_0" color="red" fill="0" layer="0.00" shape="13700.000000,20000.000000 13700.000000,18200.000000 12600.000000,18200.000000 12600.000000,20000.000000 13700.000000,20000.000000"/>
    <poi id="poi_0" color="36,255,0" layer="202.00" x="13635.70" y="19987.78" width="20.00" height="10.00"/>
    <poi id="poi_1" color="244,0,255" layer="202.00" x="13639.15" y="19962.89" width="20.00" height="10.00"/>
    <poi id="poi_2" color="8,255,0" layer="202.00" x="13527.88" y="19979.63" width="20.00" height="10.00"/>
    <poi id="poi_3" color="234,0,255" layer="202.00" x="13599.66" y="19983.00" width="20.00" height="10.00"/>
    <poi id="poi_4" color="39,255,0" layer="202.00" x="13525.04" y="19811.16" width="20.00" height="10.00"/>
    <poi id="poi_5" color="240,0,255" layer="202.00" x="13569.04" y="19818.34" width="20.00" height="10.00"/>
    <poi id="poi_6" color="240,0,255" layer="202.00" x="13104.36" y="18333.85" width="20.00" height="10.00"/>
    <poi id="poi_7" color="240,0,255" layer="202.00" x="13265.38" y="18309.34" width="20.00" height="10.00"/>
    <poi id="poi_8" color="0,255,42" layer="202.00" x="13134.70" y="18333.85" width="20.00" height="10.00"/>
    <poi id="poi_9" color="0,255,42" layer="202.00" x="13288.72" y="18324.51" width="20.00" height="10.00"/>
</additional>
