<?xml version="1.0" encoding="UTF-8"?>

<!-- generated on 2025-05-15 21:40:05 by Eclipse SUMO duarouter Version 1.22.0
<duarouterConfiguration xmlns:xsi="http://www.w3.org/2001/XMLSchema-instance" xsi:noNamespaceSchemaLocation="http://sumo.dlr.de/xsd/duarouterConfiguration.xsd">

    <input>
        <net-file value="../simulation/villages/Erstfeld/erstfeld_osm.net.xml"/>
        <additional-files value="data/vehicle_types_new.xml"/>
        <route-files value="output/reconstructed_trips_erstfeld.trips.xml"/>
    </input>

    <output>
        <output-file value="output/05_17_routes_erstfeld.rou.xml"/>
    </output>

</duarouterConfiguration>
-->

<routes xmlns:xsi="http://www.w3.org/2001/XMLSchema-instance" xsi:noNamespaceSchemaLocation="http://sumo.dlr.de/xsd/routes_file.xsd">
    <vType id="motorbike" minGap="1.50" maxSpeed="35.00" speedFactor="normc(0.93,0.09,0.20,2.00)" vClass="motorcycle" impatience="3.80" minGapLat="0.40" lcStrategic="20" lcCooperative="0.2" lcSpeedGain="10.0" lcKeepRight="0.3" lcSublane="5.0" lcPushy="2.5" lcPushyGap="0.3" lcAssertive="3.8" lcImpatience="2.4" lcTimeToImpatience="9" lcSigma="0.9" accel="4.5" decel="7.0" tau="3.0">
        <param key="laneChangeModel" value="SL2015"/>
    </vType>
    <vehicle id="r_axs_tun_aEr_eAm_1_motorbike.0" type="motorbike" depart="4679.18">
        <route edges="lane_entry_A 304437990.100 1194464758 40533583 40533582 -43199799 -40533581 -500049929#3 -500049929#1 -500049929#0 -1249503597 988527784 500049928#1 500049926#5 537680524#0 985130595 645643597 1157181114 1157181115 645643593#0 645643593#1 645643593#2 23725641#0 23725641#1 23725641#2 836109912#0 836109912#1 836109912#2 836109912#3 836109912#4 836109912#5 836109912#6 836109912#7 836109912#8 836109912#9 836109912#10 836109912#12 836109912#13 836109912#14 836109912#15 836109912#16 836109912#17 836109912#18 836109912#19 836109912#21 836109912#22 836109912#25 836109912#26 199647756#1 199647756#2 305871543#3 305871543#4 305871543#5 305871543#7 305871543#8 305871543#9 305871543#10 305871543#11 305871543#12 184907621#0 184907621#1 184907621#2 184907621#3 lane_exit_speed_D lane_exit_D"/>
    </vehicle>
    <vType id="small_truck" length="6.50" maxSpeed="28.00" speedFactor="normc(0.85,0.05,0.20,2.00)" vClass="delivery" impatience="2.50" minGapLat="0.60" lcStrategic="35" lcCooperative="0.3" lcSpeedGain="6.0" lcKeepRight="0.4" lcSublane="2.0" lcPushy="1.8" lcPushyGap="0.4" lcAssertive="2.5" lcImpatience="1.8" lcTimeToImpatience="10" lcSigma="0.5" accel="2.2" decel="4.0" tau="2.8">
        <param key="laneChangeModel" value="SL2015"/>
    </vType>
    <vehicle id="r_axs_tun_aEr_eAm_1_small_truck.0" type="small_truck" depart="5099.00">
        <route edges="lane_entry_A 304437990.100 1194464758 40533583 40533582 -43199799 -40533581 -500049929#3 -500049929#1 -500049929#0 -1249503597 988527784 500049928#1 500049926#5 537680524#0 985130595 645643597 1157181114 1157181115 645643593#0 645643593#1 645643593#2 23725641#0 23725641#1 23725641#2 836109912#0 836109912#1 836109912#2 836109912#3 836109912#4 836109912#5 836109912#6 836109912#7 836109912#8 836109912#9 836109912#10 836109912#12 836109912#13 836109912#14 836109912#15 836109912#16 836109912#17 836109912#18 836109912#19 836109912#21 836109912#22 836109912#25 836109912#26 199647756#1 199647756#2 305871543#3 305871543#4 305871543#5 305871543#7 305871543#8 305871543#9 305871543#10 305871543#11 305871543#12 184907621#0 184907621#1 184907621#2 184907621#3 lane_exit_speed_D lane_exit_D"/>
    </vehicle>
    <vType id="car_aggr4" maxSpeed="40.00" speedFactor="normc(0.95,0.12,0.20,2.00)" vClass="passenger" impatience="3.50" minGapLat="0.40" lcStrategic="15" lcCooperative="0.1" lcSpeedGain="10.0" lcKeepRight="0.2" lcSublane="5.0" lcPushy="2.6" lcPushyGap="0.2" lcAssertive="4.2" lcImpatience="2.5" lcTimeToImpatience="6" lcSigma="1.0" accel="2.8" decel="6.0" tau="3.0">
        <param key="laneChangeModel" value="SL2015"/>
    </vType>
    <vehicle id="r_alt_and_1_1_car_aggr4.0" type="car_aggr4" depart="5334.71">
        <route edges="lane_entry_C 6456436000.42 645643600.203 537680525 500049926#3 500049926#4 500049926#5 537680524#0 985130595 645643597 1157181114 1157181115 645643593#0 645643593#1 645643593#2 23725641#0 23725641#1 23725641#2 836109912#0 836109912#1 836109912#2 836109912#3 836109912#4 836109912#5 836109912#6 836109912#7 836109912#8 836109912#9 836109912#10 836109912#12 836109912#13 836109912#14 836109912#15 836109912#16 836109912#17 836109912#18 836109912#19 836109912#21 836109912#22 836109912#25 836109912#26 199647756#1 199647756#2 305871543#3 305871543#4 305871543#5 305871543#7 305871543#8 305871543#9 305871543#10 305871543#11 305871543#12 184907621#0 184907621#1 184907621#2 184907621#3 lane_exit_speed_D lane_exit_D"/>
    </vehicle>
    <vType id="car_aggr2" maxSpeed="35.00" speedFactor="normc(0.85,0.09,0.20,2.00)" vClass="passenger" impatience="2.50" minGapLat="0.60" lcStrategic="40" lcCooperative="0.3" lcSpeedGain="8.0" lcKeepRight="0.5" lcSublane="3.0" lcPushy="1.8" lcPushyGap="0.4" lcAssertive="2.8" lcImpatience="1.5" lcTimeToImpatience="12" lcSigma="0.6" accel="2.2" decel="4.0" tau="4.5">
        <param key="laneChangeModel" value="SL2015"/>
    </vType>
    <vehicle id="r_luz_tun_aAl_eEr_1_car_aggr2.0" type="car_aggr2" depart="5361.05">
        <route edges="lane_entry_C 6456436000.42 645643600.203 537680525 500049926#3 40847862#0 40847862#1 1249503597 500049929#0 500049929#1 500049929#3 40533581 988546513 -304437986 -304437988 1209159864 lane_exit_speed_B lane_exit_B"/>
    </vehicle>
    <vType id="car_aggr3" maxSpeed="40.00" speedFactor="normc(0.90,0.10,0.20,2.00)" vClass="passenger" impatience="3.00" minGapLat="0.50" lcStrategic="25" lcCooperative="0.2" lcSpeedGain="9.0" lcKeepRight="0.3" lcSublane="4.0" lcPushy="2.2" lcPushyGap="0.3" lcAssertive="3.5" lcImpatience="2.0" lcTimeToImpatience="9" lcSigma="0.8" accel="2.5" decel="5.0" tau="3.5">
        <param key="laneChangeModel" value="SL2015"/>
    </vType>
    <vehicle id="r_luz_tun_aAl_eEr_1_car_aggr3.0" type="car_aggr3" depart="5365.69">
        <route edges="lane_entry_C 6456436000.42 645643600.203 537680525 500049926#3 40847862#0 40847862#1 1249503597 500049929#0 500049929#1 500049929#3 40533581 988546513 -304437986 -304437988 1209159864 lane_exit_speed_B lane_exit_B"/>
    </vehicle>
    <vehicle id="r_luz_tun_aEr_eAm_1_car_aggr3.0" type="car_aggr3" depart="5637.30">
        <route edges="lane_entry_A 304437990.100 1194464758 40533583 40533582 -43199799 -40533581 -500049929#3 -500049929#1 -500049929#0 -1249503597 988527784 500049928#1 500049926#5 537680524#0 985130595 645643597 1157181114 1157181115 645643593#0 645643593#1 645643593#2 23725641#0 23725641#1 23725641#2 836109912#0 836109912#1 836109912#2 836109912#3 836109912#4 836109912#5 836109912#6 836109912#7 836109912#8 836109912#9 836109912#10 836109912#12 836109912#13 836109912#14 836109912#15 836109912#16 836109912#17 836109912#18 836109912#19 836109912#21 836109912#22 836109912#25 836109912#26 199647756#1 199647756#2 305871543#3 305871543#4 305871543#5 305871543#7 305871543#8 305871543#9 305871543#10 305871543#11 305871543#12 184907621#0 184907621#1 184907621#2 184907621#3 lane_exit_speed_D lane_exit_D"/>
    </vehicle>
    <vehicle id="r_luz_tun_aAl_eEr_1_car_aggr4.0" type="car_aggr4" depart="5875.10">
        <route edges="lane_entry_C 6456436000.42 645643600.203 537680525 500049926#3 40847862#0 40847862#1 1249503597 500049929#0 500049929#1 500049929#3 40533581 988546513 -304437986 -304437988 1209159864 lane_exit_speed_B lane_exit_B"/>
    </vehicle>
    <vehicle id="r_alt_and_1_1_car_aggr4.1" type="car_aggr4" depart="5927.41">
        <route edges="lane_entry_C 6456436000.42 645643600.203 537680525 500049926#3 500049926#4 500049926#5 537680524#0 985130595 645643597 1157181114 1157181115 645643593#0 645643593#1 645643593#2 23725641#0 23725641#1 23725641#2 836109912#0 836109912#1 836109912#2 836109912#3 836109912#4 836109912#5 836109912#6 836109912#7 836109912#8 836109912#9 836109912#10 836109912#12 836109912#13 836109912#14 836109912#15 836109912#16 836109912#17 836109912#18 836109912#19 836109912#21 836109912#22 836109912#25 836109912#26 199647756#1 199647756#2 305871543#3 305871543#4 305871543#5 305871543#7 305871543#8 305871543#9 305871543#10 305871543#11 305871543#12 184907621#0 184907621#1 184907621#2 184907621#3 lane_exit_speed_D lane_exit_D"/>
    </vehicle>
    <vehicle id="r_luz_tun_aAl_eEr_1_car_aggr3.1" type="car_aggr3" depart="6315.25">
        <route edges="lane_entry_C 6456436000.42 645643600.203 537680525 500049926#3 40847862#0 40847862#1 1249503597 500049929#0 500049929#1 500049929#3 40533581 988546513 -304437986 -304437988 1209159864 lane_exit_speed_B lane_exit_B"/>
    </vehicle>
    <vehicle id="r_luz_tun_aEr_eAm_1_car_aggr3.1" type="car_aggr3" depart="6626.30">
        <route edges="lane_entry_A 304437990.100 1194464758 40533583 40533582 -43199799 -40533581 -500049929#3 -500049929#1 -500049929#0 -1249503597 988527784 500049928#1 500049926#5 537680524#0 985130595 645643597 1157181114 1157181115 645643593#0 645643593#1 645643593#2 23725641#0 23725641#1 23725641#2 836109912#0 836109912#1 836109912#2 836109912#3 836109912#4 836109912#5 836109912#6 836109912#7 836109912#8 836109912#9 836109912#10 836109912#12 836109912#13 836109912#14 836109912#15 836109912#16 836109912#17 836109912#18 836109912#19 836109912#21 836109912#22 836109912#25 836109912#26 199647756#1 199647756#2 305871543#3 305871543#4 305871543#5 305871543#7 305871543#8 305871543#9 305871543#10 305871543#11 305871543#12 184907621#0 184907621#1 184907621#2 184907621#3 lane_exit_speed_D lane_exit_D"/>
    </vehicle>
    <vehicle id="r_axs_tun_aEr_eAm_1_motorbike.1" type="motorbike" depart="7000.18">
        <route edges="lane_entry_A 304437990.100 1194464758 40533583 40533582 -43199799 -40533581 -500049929#3 -500049929#1 -500049929#0 -1249503597 988527784 500049928#1 500049926#5 537680524#0 985130595 645643597 1157181114 1157181115 645643593#0 645643593#1 645643593#2 23725641#0 23725641#1 23725641#2 836109912#0 836109912#1 836109912#2 836109912#3 836109912#4 836109912#5 836109912#6 836109912#7 836109912#8 836109912#9 836109912#10 836109912#12 836109912#13 836109912#14 836109912#15 836109912#16 836109912#17 836109912#18 836109912#19 836109912#21 836109912#22 836109912#25 836109912#26 199647756#1 199647756#2 305871543#3 305871543#4 305871543#5 305871543#7 305871543#8 305871543#9 305871543#10 305871543#11 305871543#12 184907621#0 184907621#1 184907621#2 184907621#3 lane_exit_speed_D lane_exit_D"/>
    </vehicle>
    <vehicle id="r_tun_axs_KS_____1_small_truck.0" type="small_truck" depart="7011.55">
        <route edges="lane_entry_D -184907621#30 -184907621#30.25 -184907621#2 -184907621#1 -184907621#0 -1157181088 -305871543#11 -305871543#10 -305871543#9 -305871543#8 -305871543#7 -305871543#5 -305871543#4 -305871543#3 -305871543#0 -199647756#1 -836109912#26 -836109912#25 -836109912#22 -836109912#21 -836109912#19 -836109912#18 -836109912#17 -836109912#16 -836109912#15 -836109912#14 -836109912#13 -836109912#12 -836109912#10 -836109912#9 -836109912#8 -836109912#7 -836109912#6 -836109912#5 -836109912#4 -836109912#3 -836109912#2 -836109912#1 -836109912#0 -23725641#2 -23725641#1 -23725641#0 -645643593#2 -645643593#1 -645643593#0 -1157181115 -1157181114 -645643597 -985130595 537680527#1 500049926#0 500049926#1 537680526 -645643600 lane_exit_speed_C lane_exit_C"/>
    </vehicle>
    <vehicle id="r_luz_tun_aEr_eAm_1_car_aggr2.0" type="car_aggr2" depart="7081.82">
        <route edges="lane_entry_A 304437990.100 1194464758 40533583 40533582 -43199799 -40533581 -500049929#3 -500049929#1 -500049929#0 -1249503597 988527784 500049928#1 500049926#5 537680524#0 985130595 645643597 1157181114 1157181115 645643593#0 645643593#1 645643593#2 23725641#0 23725641#1 23725641#2 836109912#0 836109912#1 836109912#2 836109912#3 836109912#4 836109912#5 836109912#6 836109912#7 836109912#8 836109912#9 836109912#10 836109912#12 836109912#13 836109912#14 836109912#15 836109912#16 836109912#17 836109912#18 836109912#19 836109912#21 836109912#22 836109912#25 836109912#26 199647756#1 199647756#2 305871543#3 305871543#4 305871543#5 305871543#7 305871543#8 305871543#9 305871543#10 305871543#11 305871543#12 184907621#0 184907621#1 184907621#2 184907621#3 lane_exit_speed_D lane_exit_D"/>
    </vehicle>
    <vehicle id="r_tun_axs_KS_____1_motorbike.0" type="motorbike" depart="7579.02">
        <route edges="lane_entry_D -184907621#30 -184907621#30.25 -184907621#2 -184907621#1 -184907621#0 -1157181088 -305871543#11 -305871543#10 -305871543#9 -305871543#8 -305871543#7 -305871543#5 -305871543#4 -305871543#3 -305871543#0 -199647756#1 -836109912#26 -836109912#25 -836109912#22 -836109912#21 -836109912#19 -836109912#18 -836109912#17 -836109912#16 -836109912#15 -836109912#14 -836109912#13 -836109912#12 -836109912#10 -836109912#9 -836109912#8 -836109912#7 -836109912#6 -836109912#5 -836109912#4 -836109912#3 -836109912#2 -836109912#1 -836109912#0 -23725641#2 -23725641#1 -23725641#0 -645643593#2 -645643593#1 -645643593#0 -1157181115 -1157181114 -645643597 -985130595 537680527#1 500049926#0 500049926#1 537680526 -645643600 lane_exit_speed_C lane_exit_C"/>
    </vehicle>
    <vehicle id="r_tun_axs_KS_____1_car_aggr2.0" type="car_aggr2" depart="7584.79">
        <route edges="lane_entry_D -184907621#30 -184907621#30.25 -184907621#2 -184907621#1 -184907621#0 -1157181088 -305871543#11 -305871543#10 -305871543#9 -305871543#8 -305871543#7 -305871543#5 -305871543#4 -305871543#3 -305871543#0 -199647756#1 -836109912#26 -836109912#25 -836109912#22 -836109912#21 -836109912#19 -836109912#18 -836109912#17 -836109912#16 -836109912#15 -836109912#14 -836109912#13 -836109912#12 -836109912#10 -836109912#9 -836109912#8 -836109912#7 -836109912#6 -836109912#5 -836109912#4 -836109912#3 -836109912#2 -836109912#1 -836109912#0 -23725641#2 -23725641#1 -23725641#0 -645643593#2 -645643593#1 -645643593#0 -1157181115 -1157181114 -645643597 -985130595 537680527#1 500049926#0 500049926#1 537680526 -645643600 lane_exit_speed_C lane_exit_C"/>
    </vehicle>
    <vehicle id="r_alt_and_1_1_motorbike.0" type="motorbike" depart="7594.10">
        <route edges="lane_entry_C 6456436000.42 645643600.203 537680525 500049926#3 500049926#4 500049926#5 537680524#0 985130595 645643597 1157181114 1157181115 645643593#0 645643593#1 645643593#2 23725641#0 23725641#1 23725641#2 836109912#0 836109912#1 836109912#2 836109912#3 836109912#4 836109912#5 836109912#6 836109912#7 836109912#8 836109912#9 836109912#10 836109912#12 836109912#13 836109912#14 836109912#15 836109912#16 836109912#17 836109912#18 836109912#19 836109912#21 836109912#22 836109912#25 836109912#26 199647756#1 199647756#2 305871543#3 305871543#4 305871543#5 305871543#7 305871543#8 305871543#9 305871543#10 305871543#11 305871543#12 184907621#0 184907621#1 184907621#2 184907621#3 lane_exit_speed_D lane_exit_D"/>
    </vehicle>
    <vehicle id="r_tun_axs_KS_____1_car_aggr2.1" type="car_aggr2" depart="8013.15">
        <route edges="lane_entry_D -184907621#30 -184907621#30.25 -184907621#2 -184907621#1 -184907621#0 -1157181088 -305871543#11 -305871543#10 -305871543#9 -305871543#8 -305871543#7 -305871543#5 -305871543#4 -305871543#3 -305871543#0 -199647756#1 -836109912#26 -836109912#25 -836109912#22 -836109912#21 -836109912#19 -836109912#18 -836109912#17 -836109912#16 -836109912#15 -836109912#14 -836109912#13 -836109912#12 -836109912#10 -836109912#9 -836109912#8 -836109912#7 -836109912#6 -836109912#5 -836109912#4 -836109912#3 -836109912#2 -836109912#1 -836109912#0 -23725641#2 -23725641#1 -23725641#0 -645643593#2 -645643593#1 -645643593#0 -1157181115 -1157181114 -645643597 -985130595 537680527#1 500049926#0 500049926#1 537680526 -645643600 lane_exit_speed_C lane_exit_C"/>
    </vehicle>
    <vType id="car_aggr5" maxSpeed="45.00" speedFactor="normc(1.00,0.15,0.20,2.00)" vClass="passenger" impatience="4.00" minGapLat="0.30" lcStrategic="5" lcCooperative="0.0" lcSpeedGain="11.0" lcKeepRight="0.0" lcSublane="6.0" lcPushy="3.0" lcPushyGap="0.1" lcAssertive="5.0" lcImpatience="3.0" lcTimeToImpatience="3" lcSigma="1.2" accel="3.0" decel="8.0" tau="2.5">
        <param key="laneChangeModel" value="SL2015"/>
    </vType>
    <vehicle id="r_luz_tun_aAl_eEr_1_car_aggr5.0" type="car_aggr5" depart="8314.65">
        <route edges="lane_entry_C 6456436000.42 645643600.203 537680525 500049926#3 40847862#0 40847862#1 1249503597 500049929#0 500049929#1 500049929#3 40533581 988546513 -304437986 -304437988 1209159864 lane_exit_speed_B lane_exit_B"/>
    </vehicle>
    <vehicle id="r_and_alt_1_1_car_aggr3.0" type="car_aggr3" depart="8360.36">
        <route edges="lane_entry_D -184907621#30 -184907621#30.25 -184907621#2 -184907621#1 -184907621#0 -1157181088 -305871543#11 -305871543#10 -305871543#9 -305871543#8 -305871543#7 -305871543#5 -305871543#4 -305871543#3 -305871543#0 -199647756#1 -836109912#26 -836109912#25 -836109912#22 -836109912#21 -836109912#19 -836109912#18 -836109912#17 -836109912#16 -836109912#15 -836109912#14 -836109912#13 -836109912#12 -836109912#10 -836109912#9 -836109912#8 -836109912#7 -836109912#6 -836109912#5 -836109912#4 -836109912#3 -836109912#2 -836109912#1 -836109912#0 -23725641#2 -23725641#1 -23725641#0 -645643593#2 -645643593#1 -645643593#0 -1157181115 -1157181114 -645643597 -985130595 537680527#1 500049926#0 500049926#1 537680526 -645643600 lane_exit_speed_C lane_exit_C"/>
    </vehicle>
    <vehicle id="r_tun_axs_KS_____1_car_aggr4.0" type="car_aggr4" depart="8668.98">
        <route edges="lane_entry_D -184907621#30 -184907621#30.25 -184907621#2 -184907621#1 -184907621#0 -1157181088 -305871543#11 -305871543#10 -305871543#9 -305871543#8 -305871543#7 -305871543#5 -305871543#4 -305871543#3 -305871543#0 -199647756#1 -836109912#26 -836109912#25 -836109912#22 -836109912#21 -836109912#19 -836109912#18 -836109912#17 -836109912#16 -836109912#15 -836109912#14 -836109912#13 -836109912#12 -836109912#10 -836109912#9 -836109912#8 -836109912#7 -836109912#6 -836109912#5 -836109912#4 -836109912#3 -836109912#2 -836109912#1 -836109912#0 -23725641#2 -23725641#1 -23725641#0 -645643593#2 -645643593#1 -645643593#0 -1157181115 -1157181114 -645643597 -985130595 537680527#1 500049926#0 500049926#1 537680526 -645643600 lane_exit_speed_C lane_exit_C"/>
    </vehicle>
    <vehicle id="r_tun_axs_KS_____1_car_aggr5.0" type="car_aggr5" depart="9385.56">
        <route edges="lane_entry_D -184907621#30 -184907621#30.25 -184907621#2 -184907621#1 -184907621#0 -1157181088 -305871543#11 -305871543#10 -305871543#9 -305871543#8 -305871543#7 -305871543#5 -305871543#4 -305871543#3 -305871543#0 -199647756#1 -836109912#26 -836109912#25 -836109912#22 -836109912#21 -836109912#19 -836109912#18 -836109912#17 -836109912#16 -836109912#15 -836109912#14 -836109912#13 -836109912#12 -836109912#10 -836109912#9 -836109912#8 -836109912#7 -836109912#6 -836109912#5 -836109912#4 -836109912#3 -836109912#2 -836109912#1 -836109912#0 -23725641#2 -23725641#1 -23725641#0 -645643593#2 -645643593#1 -645643593#0 -1157181115 -1157181114 -645643597 -985130595 537680527#1 500049926#0 500049926#1 537680526 -645643600 lane_exit_speed_C lane_exit_C"/>
    </vehicle>
    <vehicle id="r_luz_tun_aAl_eEr_2_car_aggr3.0" type="car_aggr3" depart="10174.36">
        <route edges="lane_entry_C 6456436000.42 645643600.203 537680525 500049926#3 40847862#0 40847862#1 1249503597 500049929#0 500049929#1 500049929#3 40533581 988546513 -304437986 -304437988 1209159864 lane_exit_speed_B lane_exit_B"/>
    </vehicle>
    <vehicle id="r_luz_tun_aAl_eEr_2_car_aggr2.0" type="car_aggr2" depart="10385.98">
        <route edges="lane_entry_C 6456436000.42 645643600.203 537680525 500049926#3 40847862#0 40847862#1 1249503597 500049929#0 500049929#1 500049929#3 40533581 988546513 -304437986 -304437988 1209159864 lane_exit_speed_B lane_exit_B"/>
    </vehicle>
    <vehicle id="r_luz_tun_aAl_eEr_2_motorbike.0" type="motorbike" depart="11723.05">
        <route edges="lane_entry_C 6456436000.42 645643600.203 537680525 500049926#3 40847862#0 40847862#1 1249503597 500049929#0 500049929#1 500049929#3 40533581 988546513 -304437986 -304437988 1209159864 lane_exit_speed_B lane_exit_B"/>
    </vehicle>
    <vehicle id="r_luz_tun_aAl_eEr_2_car_aggr3.1" type="car_aggr3" depart="11897.46">
        <route edges="lane_entry_C 6456436000.42 645643600.203 537680525 500049926#3 40847862#0 40847862#1 1249503597 500049929#0 500049929#1 500049929#3 40533581 988546513 -304437986 -304437988 1209159864 lane_exit_speed_B lane_exit_B"/>
    </vehicle>
    <vehicle id="r_luz_tun_aAl_eEr_2_car_aggr5.0" type="car_aggr5" depart="12053.52">
        <route edges="lane_entry_C 6456436000.42 645643600.203 537680525 500049926#3 40847862#0 40847862#1 1249503597 500049929#0 500049929#1 500049929#3 40533581 988546513 -304437986 -304437988 1209159864 lane_exit_speed_B lane_exit_B"/>
    </vehicle>
    <vehicle id="r_luz_tun_aAl_eEr_3_small_truck.0" type="small_truck" depart="13112.36">
        <route edges="lane_entry_C 6456436000.42 645643600.203 537680525 500049926#3 40847862#0 40847862#1 1249503597 500049929#0 500049929#1 500049929#3 40533581 988546513 -304437986 -304437988 1209159864 lane_exit_speed_B lane_exit_B"/>
    </vehicle>
    <vehicle id="r_luz_tun_aAl_eEr_3_motorbike.0" type="motorbike" depart="13165.39">
        <route edges="lane_entry_C 6456436000.42 645643600.203 537680525 500049926#3 40847862#0 40847862#1 1249503597 500049929#0 500049929#1 500049929#3 40533581 988546513 -304437986 -304437988 1209159864 lane_exit_speed_B lane_exit_B"/>
    </vehicle>
    <vehicle id="r_luz_tun_aAl_eEr_3_car_aggr4.0" type="car_aggr4" depart="13544.76">
        <route edges="lane_entry_C 6456436000.42 645643600.203 537680525 500049926#3 40847862#0 40847862#1 1249503597 500049929#0 500049929#1 500049929#3 40533581 988546513 -304437986 -304437988 1209159864 lane_exit_speed_B lane_exit_B"/>
    </vehicle>
    <vehicle id="r_luz_tun_aAl_eEr_3_motorbike.1" type="motorbike" depart="13909.65">
        <route edges="lane_entry_C 6456436000.42 645643600.203 537680525 500049926#3 40847862#0 40847862#1 1249503597 500049929#0 500049929#1 500049929#3 40533581 988546513 -304437986 -304437988 1209159864 lane_exit_speed_B lane_exit_B"/>
    </vehicle>
    <vehicle id="r_alt_and_1_3_car_aggr3.0" type="car_aggr3" depart="14056.23">
        <route edges="lane_entry_C 6456436000.42 645643600.203 537680525 500049926#3 500049926#4 500049926#5 537680524#0 985130595 645643597 1157181114 1157181115 645643593#0 645643593#1 645643593#2 23725641#0 23725641#1 23725641#2 836109912#0 836109912#1 836109912#2 836109912#3 836109912#4 836109912#5 836109912#6 836109912#7 836109912#8 836109912#9 836109912#10 836109912#12 836109912#13 836109912#14 836109912#15 836109912#16 836109912#17 836109912#18 836109912#19 836109912#21 836109912#22 836109912#25 836109912#26 199647756#1 199647756#2 305871543#3 305871543#4 305871543#5 305871543#7 305871543#8 305871543#9 305871543#10 305871543#11 305871543#12 184907621#0 184907621#1 184907621#2 184907621#3 lane_exit_speed_D lane_exit_D"/>
    </vehicle>
    <vehicle id="r_luz_tun_aAl_eEr_3_car_aggr2.0" type="car_aggr2" depart="14354.37">
        <route edges="lane_entry_C 6456436000.42 645643600.203 537680525 500049926#3 40847862#0 40847862#1 1249503597 500049929#0 500049929#1 500049929#3 40533581 988546513 -304437986 -304437988 1209159864 lane_exit_speed_B lane_exit_B"/>
    </vehicle>
    <vehicle id="r_luz_tun_aAl_eEr_3_car_aggr5.0" type="car_aggr5" depart="14804.72">
        <route edges="lane_entry_C 6456436000.42 645643600.203 537680525 500049926#3 40847862#0 40847862#1 1249503597 500049929#0 500049929#1 500049929#3 40533581 988546513 -304437986 -304437988 1209159864 lane_exit_speed_B lane_exit_B"/>
    </vehicle>
    <vehicle id="r_luz_tun_aAl_eEr_3_motorbike.2" type="motorbike" depart="15361.47">
        <route edges="lane_entry_C 6456436000.42 645643600.203 537680525 500049926#3 40847862#0 40847862#1 1249503597 500049929#0 500049929#1 500049929#3 40533581 988546513 -304437986 -304437988 1209159864 lane_exit_speed_B lane_exit_B"/>
    </vehicle>
    <vehicle id="r_luz_tun_aAl_eEr_4_car_aggr2.0" type="car_aggr2" depart="15743.50">
        <route edges="lane_entry_C 6456436000.42 645643600.203 537680525 500049926#3 40847862#0 40847862#1 1249503597 500049929#0 500049929#1 500049929#3 40533581 988546513 -304437986 -304437988 1209159864 lane_exit_speed_B lane_exit_B"/>
    </vehicle>
    <vehicle id="r_and_alt_1_4_small_truck.0" type="small_truck" depart="17517.56">
        <route edges="lane_entry_D -184907621#30 -184907621#30.25 -184907621#2 -184907621#1 -184907621#0 -1157181088 -305871543#11 -305871543#10 -305871543#9 -305871543#8 -305871543#7 -305871543#5 -305871543#4 -305871543#3 -305871543#0 -199647756#1 -836109912#26 -836109912#25 -836109912#22 -836109912#21 -836109912#19 -836109912#18 -836109912#17 -836109912#16 -836109912#15 -836109912#14 -836109912#13 -836109912#12 -836109912#10 -836109912#9 -836109912#8 -836109912#7 -836109912#6 -836109912#5 -836109912#4 -836109912#3 -836109912#2 -836109912#1 -836109912#0 -23725641#2 -23725641#1 -23725641#0 -645643593#2 -645643593#1 -645643593#0 -1157181115 -1157181114 -645643597 -985130595 537680527#1 500049926#0 500049926#1 537680526 -645643600 lane_exit_speed_C lane_exit_C"/>
    </vehicle>
    <vehicle id="r_luz_tun_aAl_eEr_5_car_aggr5.0" type="car_aggr5" depart="19480.13">
        <route edges="lane_entry_C 6456436000.42 645643600.203 537680525 500049926#3 40847862#0 40847862#1 1249503597 500049929#0 500049929#1 500049929#3 40533581 988546513 -304437986 -304437988 1209159864 lane_exit_speed_B lane_exit_B"/>
    </vehicle>
    <vehicle id="r_luz_tun_aAl_eEr_5_car_aggr3.0" type="car_aggr3" depart="19503.78">
        <route edges="lane_entry_C 6456436000.42 645643600.203 537680525 500049926#3 40847862#0 40847862#1 1249503597 500049929#0 500049929#1 500049929#3 40533581 988546513 -304437986 -304437988 1209159864 lane_exit_speed_B lane_exit_B"/>
    </vehicle>
    <vType id="car_aggr1" maxSpeed="35.00" speedFactor="normc(0.80,0.08,0.20,2.00)" vClass="passenger" impatience="2.00" minGapLat="0.80" lcStrategic="60" lcCooperative="0.5" lcSpeedGain="7.0" lcKeepRight="0.6" lcSublane="2.0" lcPushy="1.2" lcPushyGap="0.5" lcAssertive="2.0" lcImpatience="1.0" lcTimeToImpatience="15" lcSigma="0.4" accel="1.8" decel="3.0" tau="5.0">
        <param key="laneChangeModel" value="SL2015"/>
    </vType>
    <vehicle id="r_and_alt_1_4_car_aggr1.0" type="car_aggr1" depart="19727.06">
        <route edges="lane_entry_D -184907621#30 -184907621#30.25 -184907621#2 -184907621#1 -184907621#0 -1157181088 -305871543#11 -305871543#10 -305871543#9 -305871543#8 -305871543#7 -305871543#5 -305871543#4 -305871543#3 -305871543#0 -199647756#1 -836109912#26 -836109912#25 -836109912#22 -836109912#21 -836109912#19 -836109912#18 -836109912#17 -836109912#16 -836109912#15 -836109912#14 -836109912#13 -836109912#12 -836109912#10 -836109912#9 -836109912#8 -836109912#7 -836109912#6 -836109912#5 -836109912#4 -836109912#3 -836109912#2 -836109912#1 -836109912#0 -23725641#2 -23725641#1 -23725641#0 -645643593#2 -645643593#1 -645643593#0 -1157181115 -1157181114 -645643597 -985130595 537680527#1 500049926#0 500049926#1 537680526 -645643600 lane_exit_speed_C lane_exit_C"/>
    </vehicle>
    <vehicle id="r_and_alt_1_4_small_truck.1" type="small_truck" depart="19730.51">
        <route edges="lane_entry_D -184907621#30 -184907621#30.25 -184907621#2 -184907621#1 -184907621#0 -1157181088 -305871543#11 -305871543#10 -305871543#9 -305871543#8 -305871543#7 -305871543#5 -305871543#4 -305871543#3 -305871543#0 -199647756#1 -836109912#26 -836109912#25 -836109912#22 -836109912#21 -836109912#19 -836109912#18 -836109912#17 -836109912#16 -836109912#15 -836109912#14 -836109912#13 -836109912#12 -836109912#10 -836109912#9 -836109912#8 -836109912#7 -836109912#6 -836109912#5 -836109912#4 -836109912#3 -836109912#2 -836109912#1 -836109912#0 -23725641#2 -23725641#1 -23725641#0 -645643593#2 -645643593#1 -645643593#0 -1157181115 -1157181114 -645643597 -985130595 537680527#1 500049926#0 500049926#1 537680526 -645643600 lane_exit_speed_C lane_exit_C"/>
    </vehicle>
    <vehicle id="r_luz_tun_aAl_eEr_5_car_aggr5.1" type="car_aggr5" depart="19895.77">
        <route edges="lane_entry_C 6456436000.42 645643600.203 537680525 500049926#3 40847862#0 40847862#1 1249503597 500049929#0 500049929#1 500049929#3 40533581 988546513 -304437986 -304437988 1209159864 lane_exit_speed_B lane_exit_B"/>
    </vehicle>
    <vehicle id="r_luz_tun_aAl_eEr_5_car_aggr3.1" type="car_aggr3" depart="19900.56">
        <route edges="lane_entry_C 6456436000.42 645643600.203 537680525 500049926#3 40847862#0 40847862#1 1249503597 500049929#0 500049929#1 500049929#3 40533581 988546513 -304437986 -304437988 1209159864 lane_exit_speed_B lane_exit_B"/>
    </vehicle>
    <vehicle id="r_luz_tun_aAl_eEr_5_car_aggr3.2" type="car_aggr3" depart="19905.17">
        <route edges="lane_entry_C 6456436000.42 645643600.203 537680525 500049926#3 40847862#0 40847862#1 1249503597 500049929#0 500049929#1 500049929#3 40533581 988546513 -304437986 -304437988 1209159864 lane_exit_speed_B lane_exit_B"/>
    </vehicle>
    <vehicle id="r_luz_tun_aAl_eEr_5_car_aggr3.3" type="car_aggr3" depart="20244.33">
        <route edges="lane_entry_C 6456436000.42 645643600.203 537680525 500049926#3 40847862#0 40847862#1 1249503597 500049929#0 500049929#1 500049929#3 40533581 988546513 -304437986 -304437988 1209159864 lane_exit_speed_B lane_exit_B"/>
    </vehicle>
    <vehicle id="r_luz_tun_aAl_eEr_5_car_aggr4.0" type="car_aggr4" depart="20248.51">
        <route edges="lane_entry_C 6456436000.42 645643600.203 537680525 500049926#3 40847862#0 40847862#1 1249503597 500049929#0 500049929#1 500049929#3 40533581 988546513 -304437986 -304437988 1209159864 lane_exit_speed_B lane_exit_B"/>
    </vehicle>