<?xml version="1.0" encoding="UTF-8"?>

<!-- generated on 2025-05-11 22:40:57 by Eclipse SUMO netedit Version 1.23.1
-->

<routes xmlns:xsi="http://www.w3.org/2001/XMLSchema-instance" xsi:noNamespaceSchemaLocation="http://sumo.dlr.de/xsd/routes_file.xsd">
    <!-- Routes -->
    <route id="route1" edges="-184907621#30 -184907621#30.25 -184907621#2 -184907621#1 -184907621#0 -1157181088 -305871543#11 -305871543#10 -305871543#9 -305871543#8 -305871543#7 -305871543#5 -305871543#4 -305871543#3 -305871543#0 -199647756#1 -836109912#26 -836109912#25 -836109912#22 -836109912#21 -836109912#19 -836109912#18 -836109912#17 -836109912#16 -836109912#15 -836109912#14 -836109912#13 -836109912#12 -836109912#10 -836109912#9 -836109912#8 -836109912#7 -836109912#6 -836109912#5 -836109912#4 -836109912#3 -836109912#2 -836109912#1 -836109912#0 -23725641#2 -23725641#1 -23725641#0 -645643593#2 -645643593#1 -645643593#0 -1157181115 -1157181114 -645643597 -985130595 537680527#1 500049926#0 500049926#1 537680526 -645643600"/>
    <route id="route2" edges="378596812 -43199799 -40533581 -500049929#3 -500049929#1 -500049929#0 -1249503597 988527784 500049928#1 500049926#5 500049926#6 500049926#0 500049926#1 537680526 -645643600 lane_exit_speed_C lane_exit_C"/>
    <route id="route3" edges="304437990.100 1194464758 40533583 40533582 -43199799 -40533581 -500049929#3 -500049929#1 -500049929#0 -1249503597 988527784 500049928#1 500049926#5 537680524#0 985130595 645643597 1157181114 1157181115 645643593#0 645643593#1 645643593#2 23725641#0 23725641#1 23725641#2 836109912#0 836109912#1 836109912#2 836109912#3 836109912#4 836109912#5 836109912#6 836109912#7 836109912#8 836109912#9 836109912#10 836109912#12 836109912#13 836109912#14 836109912#15 836109912#16 836109912#17 836109912#18 836109912#19 836109912#21 836109912#22 836109912#25 836109912#26 199647756#1 199647756#2 305871543#3 305871543#4 305871543#5 305871543#7 305871543#8 305871543#9 305871543#10 305871543#11 305871543#12 184907621#0 184907621#1 184907621#2 184907621#3 lane_exit_speed_D lane_exit_D"/>
    <route id="route4" edges="lane_entry_C 6456436000.42 645643600.203 537680525 500049926#3 500049926#4 500049926#5 537680524#0 985130595 645643597 1157181114 1157181115 645643593#0 645643593#1 645643593#2 23725641#0 23725641#1 23725641#2 836109912#0 836109912#1 836109912#2 836109912#3 836109912#4 836109912#5 836109912#6 836109912#7 836109912#8 836109912#9 836109912#10 836109912#12 836109912#13 836109912#14 836109912#15 836109912#16 836109912#17 836109912#18 836109912#19 836109912#21 836109912#22 836109912#25 836109912#26 199647756#1 199647756#2 305871543#3 305871543#4 305871543#5 305871543#7 305871543#8 305871543#9 305871543#10 305871543#11 305871543#12 184907621#0 184907621#1 184907621#2 184907621#3 lane_exit_speed_D"/>
    <route id="route_congestion" edges="106632651#0 106632651#1 836109912#25 836109912#26 199647756#1 199647756#2 -375499891#1 -375499891#0 -99184746#9 -99184746#8 374841782#0 374841782#1 374841782#2 -305871543#3 -305871543#0 -199647756#1 -836109912#26 -836109912#25 -836109912#22 -836109912#21 110561607#1"/>
    <!-- Flows -->
    <flow id="flow_route1" route="route1" begin="0.00" end="3600.00" period="1.00"/>
    <flow id="flow_route2" route="route2" begin="0.00" end="3600.00" period="1.00"/>
    <flow id="flow_route3" route="route3" begin="0.00" end="3600.00" period="1.00"/>
    <flow id="flow_route4" route="route4" begin="0.00" end="3600.00" period="1.00"/>
    <flow id="flow_congestion" route="route_congestion" begin="0.00" end="3600.00" period="1.00"/>

</routes>
