<?xml version="1.0" encoding="UTF-8"?>

<!-- generated on 2025-05-13 10:47:52 by Eclipse SUMO sumo Version 1.22.0
-->

<sumoConfiguration xmlns:xsi="http://www.w3.org/2001/XMLSchema-instance" xsi:noNamespaceSchemaLocation="http://sumo.dlr.de/xsd/sumoConfiguration.xsd">

    <input>
        <net-file value="schattdorf_osm.net.xml"/>
        <route-files value="20_11_routes_schattdorf.rou.xml"/>
        <additional-files value="sumo_in_out_points.add.xml"/>
    </input>

</sumoConfiguration>
