<?xml version="1.0" encoding="UTF-8"?>

<!-- generated on 2025-05-20 13:46:23 by Eclipse SUMO duarouter Version 1.22.0
<duarouterConfiguration xmlns:xsi="http://www.w3.org/2001/XMLSchema-instance" xsi:noNamespaceSchemaLocation="http://sumo.dlr.de/xsd/duarouterConfiguration.xsd">

    <input>
        <net-file value="../simulation/villages/Schattdorf/schattdorf_osm.net.xml"/>
        <additional-files value="data/vehicle_types_new.xml"/>
        <route-files value="output/reconstructed_trips_schattdorf.trips.xml"/>
    </input>

    <output>
        <output-file value="output/20_11_routes_schattdorf.rou.xml"/>
    </output>

</duarouterConfiguration>
-->

<routes xmlns:xsi="http://www.w3.org/2001/XMLSchema-instance" xsi:noNamespaceSchemaLocation="http://sumo.dlr.de/xsd/routes_file.xsd">
    <vType id="car_aggr5" maxSpeed="45.00" speedFactor="normc(1.00,0.15,0.20,2.00)" vClass="passenger" impatience="4.00" minGapLat="0.30" lcStrategic="5" lcCooperative="0.0" lcSpeedGain="11.0" lcKeepRight="0.0" lcSublane="6.0" lcPushy="3.0" lcPushyGap="0.1" lcAssertive="5.0" lcImpatience="3.0" lcTimeToImpatience="3" lcSigma="1.2" accel="3.0" decel="8.0" tau="2.5">
        <param key="laneChangeModel" value="SL2015"/>
    </vType>
    <vehicle id="r_alt_round_5_1_car_aggr5.0" type="car_aggr5" depart="3910.17">
        <route edges="lane_entry_B 40153585 40153586 110493362#0 110493362#2 110493362#3 4214424#1 4214424#2 1243554241#0 1243554241#1 -1246004176#2 -1246004176#1 -1246004176#0 -27744527#3 -27744527#2 -27744527#1 -27744527#0 -1204306703#0 -828433041#0 -828433042#2 -828433042#1 -828433042#0 -1246000047#4 -1246000047#3 -1246000047#1 -1246000045 -1246000044#1 -1246000044#0 -110927091#4 -110927091#2 -110927091#1 -110927091#0 -27742981 184919614 446397844 962498039 110927104#1 110927104#2 110927104#20 lane_exit_speed_A lane_exit_A"/>
    </vehicle>
    <vType id="car_aggr1" maxSpeed="35.00" speedFactor="normc(0.80,0.08,0.20,2.00)" vClass="passenger" impatience="2.00" minGapLat="0.80" lcStrategic="60" lcCooperative="0.5" lcSpeedGain="7.0" lcKeepRight="0.6" lcSublane="2.0" lcPushy="1.2" lcPushyGap="0.5" lcAssertive="2.0" lcImpatience="1.0" lcTimeToImpatience="15" lcSigma="0.4" accel="1.8" decel="3.0" tau="5.0">
        <param key="laneChangeModel" value="SL2015"/>
    </vType>
    <vehicle id="r_ers_alt_1_1_car_aggr1.0" type="car_aggr1" depart="4707.02">
        <route edges="lane_entry_D -175771445#0 -175771445#01 -1227355864 -382397062 -382397061 1227355866 175771446#3 1227355875 -495509369#1 -1215806178 -1212500159#0 -139960776#1 -139960776#0 -495509368#0 -1179840018 -1179840015 -1023263162#1 -1023263162#0 -382397059#3 -382397059#2 -382397059#0 -110493360#8 -110493360#7 -110493360#6 -110493360#4 -110493360#3 -110493360#0 -1057663494 -1057663493#1 -1057663493#0 -1243554241#1 -1243554241#0 -4214424#2 -4214424#1 -4214424#0 -110493362#2 -110493362#0 -40153586 lane_exit_speed_B lane_exit_B"/>
    </vehicle>
    <vType id="car_aggr2" maxSpeed="35.00" speedFactor="normc(0.85,0.09,0.20,2.00)" vClass="passenger" impatience="2.50" minGapLat="0.60" lcStrategic="40" lcCooperative="0.3" lcSpeedGain="8.0" lcKeepRight="0.5" lcSublane="3.0" lcPushy="1.8" lcPushyGap="0.4" lcAssertive="2.8" lcImpatience="1.5" lcTimeToImpatience="12" lcSigma="0.6" accel="2.2" decel="4.0" tau="4.5">
        <param key="laneChangeModel" value="SL2015"/>
    </vType>
    <vehicle id="r_ers_alt_1_1_car_aggr2.0" type="car_aggr2" depart="5310.40">
        <route edges="lane_entry_D -175771445#0 -175771445#01 -1227355864 -382397062 -382397061 1227355866 175771446#3 1227355875 -495509369#1 -1215806178 -1212500159#0 -139960776#1 -139960776#0 -495509368#0 -1179840018 -1179840015 -1023263162#1 -1023263162#0 -382397059#3 -382397059#2 -382397059#0 -110493360#8 -110493360#7 -110493360#6 -110493360#4 -110493360#3 -110493360#0 -1057663494 -1057663493#1 -1057663493#0 -1243554241#1 -1243554241#0 -4214424#2 -4214424#1 -4214424#0 -110493362#2 -110493362#0 -40153586 lane_exit_speed_B lane_exit_B"/>
    </vehicle>
    <vType id="car_aggr3" maxSpeed="40.00" speedFactor="normc(0.90,0.10,0.20,2.00)" vClass="passenger" impatience="3.00" minGapLat="0.50" lcStrategic="25" lcCooperative="0.2" lcSpeedGain="9.0" lcKeepRight="0.3" lcSublane="4.0" lcPushy="2.2" lcPushyGap="0.3" lcAssertive="3.5" lcImpatience="2.0" lcTimeToImpatience="9" lcSigma="0.8" accel="2.5" decel="5.0" tau="3.5">
        <param key="laneChangeModel" value="SL2015"/>
    </vType>
    <vehicle id="r_alt_ers_1_1_car_aggr3.0" type="car_aggr3" depart="5328.02">
        <route edges="lane_entry_A -110927104#20 -110927104#200 -110927104#2.59 -110927104#1 -110927104#0 -446397844 -1305315502 -1215806167 -35192916#0 -110927098#2 -110927098#1 -110927098#0 1227355871#1 175771446#1 1227355865 1227355867 382397062 1227355864 175771445#0 lane_exit_speed_D lane_exit_D"/>
    </vehicle>
    <vehicle id="r_ers_alt_1_1_car_aggr3.0" type="car_aggr3" depart="5465.79">
        <route edges="lane_entry_D -175771445#0 -175771445#01 -1227355864 -382397062 -382397061 1227355866 175771446#3 1227355875 -495509369#1 -1215806178 -1212500159#0 -139960776#1 -139960776#0 -495509368#0 -1179840018 -1179840015 -1023263162#1 -1023263162#0 -382397059#3 -382397059#2 -382397059#0 -110493360#8 -110493360#7 -110493360#6 -110493360#4 -110493360#3 -110493360#0 -1057663494 -1057663493#1 -1057663493#0 -1243554241#1 -1243554241#0 -4214424#2 -4214424#1 -4214424#0 -110493362#2 -110493362#0 -40153586 lane_exit_speed_B lane_exit_B"/>
    </vehicle>
    <vehicle id="r_ers_alt_1_1_car_aggr5.0" type="car_aggr5" depart="5483.90">
        <route edges="lane_entry_D -175771445#0 -175771445#01 -1227355864 -382397062 -382397061 1227355866 175771446#3 1227355875 -495509369#1 -1215806178 -1212500159#0 -139960776#1 -139960776#0 -495509368#0 -1179840018 -1179840015 -1023263162#1 -1023263162#0 -382397059#3 -382397059#2 -382397059#0 -110493360#8 -110493360#7 -110493360#6 -110493360#4 -110493360#3 -110493360#0 -1057663494 -1057663493#1 -1057663493#0 -1243554241#1 -1243554241#0 -4214424#2 -4214424#1 -4214424#0 -110493362#2 -110493362#0 -40153586 lane_exit_speed_B lane_exit_B"/>
    </vehicle>
    <vehicle id="r_axs_tun_aAl_eEr_1_car_aggr2.0" type="car_aggr2" depart="5697.14">
        <route edges="lane_entry_A -110927104#20 -110927104#200 -110927104#2.59 -110927104#1 -110927104#0 -446397844 -1305315502 -1215806167 -35192916#0 -110927098#2 -110927098#1 -110927098#0 1227355871#1 175771446#1 1227355865 1227355867 382397062 1227355864 175771445#0 lane_exit_speed_D lane_exit_D"/>
    </vehicle>
    <vehicle id="r_ers_alt_1_1_car_aggr3.1" type="car_aggr3" depart="6017.71">
        <route edges="lane_entry_D -175771445#0 -175771445#01 -1227355864 -382397062 -382397061 1227355866 175771446#3 1227355875 -495509369#1 -1215806178 -1212500159#0 -139960776#1 -139960776#0 -495509368#0 -1179840018 -1179840015 -1023263162#1 -1023263162#0 -382397059#3 -382397059#2 -382397059#0 -110493360#8 -110493360#7 -110493360#6 -110493360#4 -110493360#3 -110493360#0 -1057663494 -1057663493#1 -1057663493#0 -1243554241#1 -1243554241#0 -4214424#2 -4214424#1 -4214424#0 -110493362#2 -110493362#0 -40153586 lane_exit_speed_B lane_exit_B"/>
    </vehicle>
    <vehicle id="r_ers_alt_1_1_car_aggr3.2" type="car_aggr3" depart="6115.97">
        <route edges="lane_entry_D -175771445#0 -175771445#01 -1227355864 -382397062 -382397061 1227355866 175771446#3 1227355875 -495509369#1 -1215806178 -1212500159#0 -139960776#1 -139960776#0 -495509368#0 -1179840018 -1179840015 -1023263162#1 -1023263162#0 -382397059#3 -382397059#2 -382397059#0 -110493360#8 -110493360#7 -110493360#6 -110493360#4 -110493360#3 -110493360#0 -1057663494 -1057663493#1 -1057663493#0 -1243554241#1 -1243554241#0 -4214424#2 -4214424#1 -4214424#0 -110493362#2 -110493362#0 -40153586 lane_exit_speed_B lane_exit_B"/>
    </vehicle>
    <vehicle id="r_axs_tun_aAl_eEr_1_car_aggr1.0" type="car_aggr1" depart="6405.60">
        <route edges="lane_entry_A -110927104#20 -110927104#200 -110927104#2.59 -110927104#1 -110927104#0 -446397844 -1305315502 -1215806167 -35192916#0 -110927098#2 -110927098#1 -110927098#0 1227355871#1 175771446#1 1227355865 1227355867 382397062 1227355864 175771445#0 lane_exit_speed_D lane_exit_D"/>
    </vehicle>
    <vType id="car_aggr4" maxSpeed="40.00" speedFactor="normc(0.95,0.12,0.20,2.00)" vClass="passenger" impatience="3.50" minGapLat="0.40" lcStrategic="15" lcCooperative="0.1" lcSpeedGain="10.0" lcKeepRight="0.2" lcSublane="5.0" lcPushy="2.6" lcPushyGap="0.2" lcAssertive="4.2" lcImpatience="2.5" lcTimeToImpatience="6" lcSigma="1.0" accel="2.8" decel="6.0" tau="3.0">
        <param key="laneChangeModel" value="SL2015"/>
    </vType>
    <vehicle id="r_axs_tun_aAl_eEr_1_car_aggr4.0" type="car_aggr4" depart="6454.40">
        <route edges="lane_entry_A -110927104#20 -110927104#200 -110927104#2.59 -110927104#1 -110927104#0 -446397844 -1305315502 -1215806167 -35192916#0 -110927098#2 -110927098#1 -110927098#0 1227355871#1 175771446#1 1227355865 1227355867 382397062 1227355864 175771445#0 lane_exit_speed_D lane_exit_D"/>
    </vehicle>
    <vehicle id="r_alt_ers_1_1_car_aggr2.0" type="car_aggr2" depart="6700.80">
        <route edges="lane_entry_A -110927104#20 -110927104#200 -110927104#2.59 -110927104#1 -110927104#0 -446397844 -1305315502 -1215806167 -35192916#0 -110927098#2 -110927098#1 -110927098#0 1227355871#1 175771446#1 1227355865 1227355867 382397062 1227355864 175771445#0 lane_exit_speed_D lane_exit_D"/>
    </vehicle>
    <vType id="motorbike" minGap="1.50" maxSpeed="35.00" speedFactor="normc(0.93,0.09,0.20,2.00)" vClass="motorcycle" impatience="3.80" minGapLat="0.40" lcStrategic="20" lcCooperative="0.2" lcSpeedGain="10.0" lcKeepRight="0.3" lcSublane="5.0" lcPushy="2.5" lcPushyGap="0.3" lcAssertive="3.8" lcImpatience="2.4" lcTimeToImpatience="9" lcSigma="0.9" accel="4.5" decel="7.0" tau="3.0">
        <param key="laneChangeModel" value="SL2015"/>
    </vType>
    <vehicle id="r_ers_alt_1_1_motorbike.0" type="motorbike" depart="6742.13">
        <route edges="lane_entry_D -175771445#0 -175771445#01 -1227355864 -382397062 -382397061 1227355866 175771446#3 1227355875 -495509369#1 -1215806178 -1212500159#0 -139960776#1 -139960776#0 -495509368#0 -1179840018 -1179840015 -1023263162#1 -1023263162#0 -382397059#3 -382397059#2 -382397059#0 -110493360#8 -110493360#7 -110493360#6 -110493360#4 -110493360#3 -110493360#0 -1057663494 -1057663493#1 -1057663493#0 -1243554241#1 -1243554241#0 -4214424#2 -4214424#1 -4214424#0 -110493362#2 -110493362#0 -40153586 lane_exit_speed_B lane_exit_B"/>
    </vehicle>
    <vehicle id="r_ers_alt_1_1_car_aggr5.1" type="car_aggr5" depart="6993.63">
        <route edges="lane_entry_D -175771445#0 -175771445#01 -1227355864 -382397062 -382397061 1227355866 175771446#3 1227355875 -495509369#1 -1215806178 -1212500159#0 -139960776#1 -139960776#0 -495509368#0 -1179840018 -1179840015 -1023263162#1 -1023263162#0 -382397059#3 -382397059#2 -382397059#0 -110493360#8 -110493360#7 -110493360#6 -110493360#4 -110493360#3 -110493360#0 -1057663494 -1057663493#1 -1057663493#0 -1243554241#1 -1243554241#0 -4214424#2 -4214424#1 -4214424#0 -110493362#2 -110493362#0 -40153586 lane_exit_speed_B lane_exit_B"/>
    </vehicle>
    <vehicle id="r_axs_tun_aAl_eEr_1_car_aggr4.1" type="car_aggr4" depart="7314.97">
        <route edges="lane_entry_A -110927104#20 -110927104#200 -110927104#2.59 -110927104#1 -110927104#0 -446397844 -1305315502 -1215806167 -35192916#0 -110927098#2 -110927098#1 -110927098#0 1227355871#1 175771446#1 1227355865 1227355867 382397062 1227355864 175771445#0 lane_exit_speed_D lane_exit_D"/>
    </vehicle>
    <vehicle id="r_alt_ers_1_1_car_aggr4.0" type="car_aggr4" depart="7363.27">
        <route edges="lane_entry_A -110927104#20 -110927104#200 -110927104#2.59 -110927104#1 -110927104#0 -446397844 -1305315502 -1215806167 -35192916#0 -110927098#2 -110927098#1 -110927098#0 1227355871#1 175771446#1 1227355865 1227355867 382397062 1227355864 175771445#0 lane_exit_speed_D lane_exit_D"/>
    </vehicle>
    <vehicle id="r_luz_tun_aAl_eEr_2_car_aggr4.0" type="car_aggr4" depart="9083.29">
        <route edges="lane_entry_A -110927104#20 -110927104#200 -110927104#2.59 -110927104#1 -110927104#0 -446397844 -1305315502 -1215806167 -35192916#0 -110927098#2 -110927098#1 -110927098#0 1227355871#1 175771446#1 1227355865 1227355867 382397062 1227355864 175771445#0 lane_exit_speed_D lane_exit_D"/>
    </vehicle>
    <vehicle id="r_alt_ers_1_2_car_aggr5.0" type="car_aggr5" depart="9250.70">
        <route edges="lane_entry_A -110927104#20 -110927104#200 -110927104#2.59 -110927104#1 -110927104#0 -446397844 -1305315502 -1215806167 -35192916#0 -110927098#2 -110927098#1 -110927098#0 1227355871#1 175771446#1 1227355865 1227355867 382397062 1227355864 175771445#0 lane_exit_speed_D lane_exit_D"/>
    </vehicle>
    <vehicle id="r_and_alt_1_2_car_aggr4.0" type="car_aggr4" depart="10435.40">
        <route edges="lane_entry_D -175771445#0 -175771445#01 -1227355864 -382397062 -382397061 1227355866 175771446#3 1227355875 -495509369#1 -1215806178 -1212500159#0 -139960776#1 -139960776#0 -495509368#0 -1179840018 -1179840015 -1023263162#1 -1023263162#0 -382397059#3 -382397059#2 -382397059#0 -110493360#8 -110493360#7 -110493360#6 -110493360#4 -110493360#3 -110493360#0 -1057663494 -1057663493#1 -1057663493#0 -1243554241#1 -1243554241#0 -4214424#2 -4214424#1 -4214424#0 -110493362#2 -110493362#0 -40153586 lane_exit_speed_B lane_exit_B"/>
    </vehicle>
    <vehicle id="r_ers_alt_1_3_car_aggr3.0" type="car_aggr3" depart="11875.99">
        <route edges="lane_entry_D -175771445#0 -175771445#01 -1227355864 -382397062 -382397061 1227355866 175771446#3 1227355875 -495509369#1 -1215806178 -1212500159#0 -139960776#1 -139960776#0 -495509368#0 -1179840018 -1179840015 -1023263162#1 -1023263162#0 -382397059#3 -382397059#2 -382397059#0 -110493360#8 -110493360#7 -110493360#6 -110493360#4 -110493360#3 -110493360#0 -1057663494 -1057663493#1 -1057663493#0 -1243554241#1 -1243554241#0 -4214424#2 -4214424#1 -4214424#0 -110493362#2 -110493362#0 -40153586 lane_exit_speed_B lane_exit_B"/>
    </vehicle>
    <vehicle id="r_luz_tun_aAl_eEr_3_car_aggr3.0" type="car_aggr3" depart="12103.50">
        <route edges="lane_entry_A -110927104#20 -110927104#200 -110927104#2.59 -110927104#1 -110927104#0 -446397844 -1305315502 -1215806167 -35192916#0 -110927098#2 -110927098#1 -110927098#0 1227355871#1 175771446#1 1227355865 1227355867 382397062 1227355864 175771445#0 lane_exit_speed_D lane_exit_D"/>
    </vehicle>
    <vehicle id="r_ers_alt_1_3_car_aggr3.1" type="car_aggr3" depart="12656.96">
        <route edges="lane_entry_D -175771445#0 -175771445#01 -1227355864 -382397062 -382397061 1227355866 175771446#3 1227355875 -495509369#1 -1215806178 -1212500159#0 -139960776#1 -139960776#0 -495509368#0 -1179840018 -1179840015 -1023263162#1 -1023263162#0 -382397059#3 -382397059#2 -382397059#0 -110493360#8 -110493360#7 -110493360#6 -110493360#4 -110493360#3 -110493360#0 -1057663494 -1057663493#1 -1057663493#0 -1243554241#1 -1243554241#0 -4214424#2 -4214424#1 -4214424#0 -110493362#2 -110493362#0 -40153586 lane_exit_speed_B lane_exit_B"/>
    </vehicle>
    <vehicle id="r_ers_alt_1_3_car_aggr3.2" type="car_aggr3" depart="12790.04">
        <route edges="lane_entry_D -175771445#0 -175771445#01 -1227355864 -382397062 -382397061 1227355866 175771446#3 1227355875 -495509369#1 -1215806178 -1212500159#0 -139960776#1 -139960776#0 -495509368#0 -1179840018 -1179840015 -1023263162#1 -1023263162#0 -382397059#3 -382397059#2 -382397059#0 -110493360#8 -110493360#7 -110493360#6 -110493360#4 -110493360#3 -110493360#0 -1057663494 -1057663493#1 -1057663493#0 -1243554241#1 -1243554241#0 -4214424#2 -4214424#1 -4214424#0 -110493362#2 -110493362#0 -40153586 lane_exit_speed_B lane_exit_B"/>
    </vehicle>
    <vType id="small_truck" length="6.50" maxSpeed="28.00" speedFactor="normc(0.85,0.05,0.20,2.00)" vClass="delivery" impatience="2.50" minGapLat="0.60" lcStrategic="35" lcCooperative="0.3" lcSpeedGain="6.0" lcKeepRight="0.4" lcSublane="2.0" lcPushy="1.8" lcPushyGap="0.4" lcAssertive="2.5" lcImpatience="1.8" lcTimeToImpatience="10" lcSigma="0.5" accel="2.2" decel="4.0" tau="2.8">
        <param key="laneChangeModel" value="SL2015"/>
    </vType>
    <vehicle id="r_luz_tun_aAl_eEr_3_small_truck.0" type="small_truck" depart="13209.04">
        <route edges="lane_entry_A -110927104#20 -110927104#200 -110927104#2.59 -110927104#1 -110927104#0 -446397844 -1305315502 -1215806167 -35192916#0 -110927098#2 -110927098#1 -110927098#0 1227355871#1 175771446#1 1227355865 1227355867 382397062 1227355864 175771445#0 lane_exit_speed_D lane_exit_D"/>
    </vehicle>
    <vehicle id="r_luz_tun_aAl_eEr_3_car_aggr5.0" type="car_aggr5" depart="13456.58">
        <route edges="lane_entry_A -110927104#20 -110927104#200 -110927104#2.59 -110927104#1 -110927104#0 -446397844 -1305315502 -1215806167 -35192916#0 -110927098#2 -110927098#1 -110927098#0 1227355871#1 175771446#1 1227355865 1227355867 382397062 1227355864 175771445#0 lane_exit_speed_D lane_exit_D"/>
    </vehicle>
    <vehicle id="r_ers_alt_1_3_car_aggr4.0" type="car_aggr4" depart="13526.67">
        <route edges="lane_entry_D -175771445#0 -175771445#01 -1227355864 -382397062 -382397061 1227355866 175771446#3 1227355875 -495509369#1 -1215806178 -1212500159#0 -139960776#1 -139960776#0 -495509368#0 -1179840018 -1179840015 -1023263162#1 -1023263162#0 -382397059#3 -382397059#2 -382397059#0 -110493360#8 -110493360#7 -110493360#6 -110493360#4 -110493360#3 -110493360#0 -1057663494 -1057663493#1 -1057663493#0 -1243554241#1 -1243554241#0 -4214424#2 -4214424#1 -4214424#0 -110493362#2 -110493362#0 -40153586 lane_exit_speed_B lane_exit_B"/>
    </vehicle>
    <vehicle id="r_tun_axs_KS_____3_car_aggr2.0" type="car_aggr2" depart="14145.12">
        <route edges="lane_entry_D -175771445#0 -175771445#01 -1227355864 -382397062 -382397061 1227355866 175771446#3 1227355875 -495509369#1 -1215806178 -1212500159#0 -139960776#1 -139960776#0 -495509368#0 -1179840018 -1179840015 -1023263162#1 -1023263162#0 -382397059#3 -382397059#2 -382397059#0 -110493360#8 -110493360#7 -110493360#6 -110493360#4 -110493360#3 -110493360#0 -1057663494 -1057663493#1 -1057663493#0 -1243554241#1 -1243554241#0 -4214424#2 -4214424#1 -4214424#0 -110493362#2 -110493362#0 -40153586 lane_exit_speed_B lane_exit_B"/>
    </vehicle>
    <vehicle id="r_axs_tun_aAl_eEr_3_car_aggr2.0" type="car_aggr2" depart="14472.68">
        <route edges="lane_entry_A -110927104#20 -110927104#200 -110927104#2.59 -110927104#1 -110927104#0 -446397844 -1305315502 -1215806167 -35192916#0 -110927098#2 -110927098#1 -110927098#0 1227355871#1 175771446#1 1227355865 1227355867 382397062 1227355864 175771445#0 lane_exit_speed_D lane_exit_D"/>
    </vehicle>
    <vehicle id="r_ers_alt_1_3_car_aggr3.3" type="car_aggr3" depart="14500.11">
        <route edges="lane_entry_D -175771445#0 -175771445#01 -1227355864 -382397062 -382397061 1227355866 175771446#3 1227355875 -495509369#1 -1215806178 -1212500159#0 -139960776#1 -139960776#0 -495509368#0 -1179840018 -1179840015 -1023263162#1 -1023263162#0 -382397059#3 -382397059#2 -382397059#0 -110493360#8 -110493360#7 -110493360#6 -110493360#4 -110493360#3 -110493360#0 -1057663494 -1057663493#1 -1057663493#0 -1243554241#1 -1243554241#0 -4214424#2 -4214424#1 -4214424#0 -110493362#2 -110493362#0 -40153586 lane_exit_speed_B lane_exit_B"/>
    </vehicle>
    <vehicle id="r_tun_axs_KS_____3_car_aggr3.0" type="car_aggr3" depart="14658.28">
        <route edges="lane_entry_D -175771445#0 -175771445#01 -1227355864 -382397062 -382397061 1227355866 175771446#3 1227355875 -495509369#1 -1215806178 -1212500159#0 -139960776#1 -139960776#0 -495509368#0 -1179840018 -1179840015 -1023263162#1 -1023263162#0 -382397059#3 -382397059#2 -382397059#0 -110493360#8 -110493360#7 -110493360#6 -110493360#4 -110493360#3 -110493360#0 -1057663494 -1057663493#1 -1057663493#0 -1243554241#1 -1243554241#0 -4214424#2 -4214424#1 -4214424#0 -110493362#2 -110493362#0 -40153586 lane_exit_speed_B lane_exit_B"/>
    </vehicle>
    <vehicle id="r_alt_round6_4_car_aggr3.0" type="car_aggr3" depart="15254.07">
        <route edges="lane_entry_A -110927104#20 -110927104#200 -110927104#2.59 -110927104#1 -110927104#0 -446397844 -1305315502 27742981 110927091#0 110927091#1 110927091#2 110927091#4 110927091#5 1246000044#1 1246000045 1246000047#1 1246000047#3 1246000047#4 828433042#0 828433042#1 828433042#2 828433041#0 1204306703#0 1204306703#1 27744527#1 27744527#2 27744527#3 1246004176#0 1246004176#1 1246004176#2 -1243554241#1 -1243554241#0 -4214424#2 -4214424#1 -4214424#0 -110493362#2 -110493362#0 -40153586 lane_exit_speed_B lane_exit_B"/>
    </vehicle>
    <vehicle id="r_tun_axs_KS_____3_car_aggr3.1" type="car_aggr3" depart="15264.28">
        <route edges="lane_entry_D -175771445#0 -175771445#01 -1227355864 -382397062 -382397061 1227355866 175771446#3 1227355875 -495509369#1 -1215806178 -1212500159#0 -139960776#1 -139960776#0 -495509368#0 -1179840018 -1179840015 -1023263162#1 -1023263162#0 -382397059#3 -382397059#2 -382397059#0 -110493360#8 -110493360#7 -110493360#6 -110493360#4 -110493360#3 -110493360#0 -1057663494 -1057663493#1 -1057663493#0 -1243554241#1 -1243554241#0 -4214424#2 -4214424#1 -4214424#0 -110493362#2 -110493362#0 -40153586 lane_exit_speed_B lane_exit_B"/>
    </vehicle>
    <vehicle id="r_alt_ers_1_4_car_aggr4.0" type="car_aggr4" depart="15468.39">
        <route edges="lane_entry_A -110927104#20 -110927104#200 -110927104#2.59 -110927104#1 -110927104#0 -446397844 -1305315502 -1215806167 -35192916#0 -110927098#2 -110927098#1 -110927098#0 1227355871#1 175771446#1 1227355865 1227355867 382397062 1227355864 175771445#0 lane_exit_speed_D lane_exit_D"/>
    </vehicle>
    <vehicle id="r_tun_axs_KS_____3_car_aggr3.2" type="car_aggr3" depart="15514.06">
        <route edges="lane_entry_D -175771445#0 -175771445#01 -1227355864 -382397062 -382397061 1227355866 175771446#3 1227355875 -495509369#1 -1215806178 -1212500159#0 -139960776#1 -139960776#0 -495509368#0 -1179840018 -1179840015 -1023263162#1 -1023263162#0 -382397059#3 -382397059#2 -382397059#0 -110493360#8 -110493360#7 -110493360#6 -110493360#4 -110493360#3 -110493360#0 -1057663494 -1057663493#1 -1057663493#0 -1243554241#1 -1243554241#0 -4214424#2 -4214424#1 -4214424#0 -110493362#2 -110493362#0 -40153586 lane_exit_speed_B lane_exit_B"/>
    </vehicle>
    <vehicle id="r_alt_round6_4_car_aggr2.0" type="car_aggr2" depart="15590.16">
        <route edges="lane_entry_A -110927104#20 -110927104#200 -110927104#2.59 -110927104#1 -110927104#0 -446397844 -1305315502 27742981 110927091#0 110927091#1 110927091#2 110927091#4 110927091#5 1246000044#1 1246000045 1246000047#1 1246000047#3 1246000047#4 828433042#0 828433042#1 828433042#2 828433041#0 1204306703#0 1204306703#1 27744527#1 27744527#2 27744527#3 1246004176#0 1246004176#1 1246004176#2 -1243554241#1 -1243554241#0 -4214424#2 -4214424#1 -4214424#0 -110493362#2 -110493362#0 -40153586 lane_exit_speed_B lane_exit_B"/>
    </vehicle>
    <vehicle id="r_ers_alt_1_4_motorbike.0" type="motorbike" depart="15900.96">
        <route edges="lane_entry_D -175771445#0 -175771445#01 -1227355864 -382397062 -382397061 1227355866 175771446#3 1227355875 -495509369#1 -1215806178 -1212500159#0 -139960776#1 -139960776#0 -495509368#0 -1179840018 -1179840015 -1023263162#1 -1023263162#0 -382397059#3 -382397059#2 -382397059#0 -110493360#8 -110493360#7 -110493360#6 -110493360#4 -110493360#3 -110493360#0 -1057663494 -1057663493#1 -1057663493#0 -1243554241#1 -1243554241#0 -4214424#2 -4214424#1 -4214424#0 -110493362#2 -110493362#0 -40153586 lane_exit_speed_B lane_exit_B"/>
    </vehicle>
    <vehicle id="r_axs_tun_aAl_eEr_4_small_truck.0" type="small_truck" depart="16345.59">
        <route edges="lane_entry_A -110927104#20 -110927104#200 -110927104#2.59 -110927104#1 -110927104#0 -446397844 -1305315502 -1215806167 -35192916#0 -110927098#2 -110927098#1 -110927098#0 1227355871#1 175771446#1 1227355865 1227355867 382397062 1227355864 175771445#0 lane_exit_speed_D lane_exit_D"/>
    </vehicle>
    <vehicle id="r_axs_tun_aAl_eEr_4_car_aggr3.0" type="car_aggr3" depart="16689.79">
        <route edges="lane_entry_A -110927104#20 -110927104#200 -110927104#2.59 -110927104#1 -110927104#0 -446397844 -1305315502 -1215806167 -35192916#0 -110927098#2 -110927098#1 -110927098#0 1227355871#1 175771446#1 1227355865 1227355867 382397062 1227355864 175771445#0 lane_exit_speed_D lane_exit_D"/>
    </vehicle>
    <vehicle id="r_alt_round6_4_small_truck.0" type="small_truck" depart="17039.26">
        <route edges="lane_entry_A -110927104#20 -110927104#200 -110927104#2.59 -110927104#1 -110927104#0 -446397844 -1305315502 27742981 110927091#0 110927091#1 110927091#2 110927091#4 110927091#5 1246000044#1 1246000045 1246000047#1 1246000047#3 1246000047#4 828433042#0 828433042#1 828433042#2 828433041#0 1204306703#0 1204306703#1 27744527#1 27744527#2 27744527#3 1246004176#0 1246004176#1 1246004176#2 -1243554241#1 -1243554241#0 -4214424#2 -4214424#1 -4214424#0 -110493362#2 -110493362#0 -40153586 lane_exit_speed_B lane_exit_B"/>
    </vehicle>
    <vehicle id="r_axs_tun_aAl_eEr_4_car_aggr4.0" type="car_aggr4" depart="17049.21">
        <route edges="lane_entry_A -110927104#20 -110927104#200 -110927104#2.59 -110927104#1 -110927104#0 -446397844 -1305315502 -1215806167 -35192916#0 -110927098#2 -110927098#1 -110927098#0 1227355871#1 175771446#1 1227355865 1227355867 382397062 1227355864 175771445#0 lane_exit_speed_D lane_exit_D"/>
    </vehicle>
    <vehicle id="r_ers_alt_1_4_car_aggr5.0" type="car_aggr5" depart="17072.29">
        <route edges="lane_entry_D -175771445#0 -175771445#01 -1227355864 -382397062 -382397061 1227355866 175771446#3 1227355875 -495509369#1 -1215806178 -1212500159#0 -139960776#1 -139960776#0 -495509368#0 -1179840018 -1179840015 -1023263162#1 -1023263162#0 -382397059#3 -382397059#2 -382397059#0 -110493360#8 -110493360#7 -110493360#6 -110493360#4 -110493360#3 -110493360#0 -1057663494 -1057663493#1 -1057663493#0 -1243554241#1 -1243554241#0 -4214424#2 -4214424#1 -4214424#0 -110493362#2 -110493362#0 -40153586 lane_exit_speed_B lane_exit_B"/>
    </vehicle>
    <vehicle id="r_ers_alt_1_4_car_aggr5.1" type="car_aggr5" depart="17408.09">
        <route edges="lane_entry_D -175771445#0 -175771445#01 -1227355864 -382397062 -382397061 1227355866 175771446#3 1227355875 -495509369#1 -1215806178 -1212500159#0 -139960776#1 -139960776#0 -495509368#0 -1179840018 -1179840015 -1023263162#1 -1023263162#0 -382397059#3 -382397059#2 -382397059#0 -110493360#8 -110493360#7 -110493360#6 -110493360#4 -110493360#3 -110493360#0 -1057663494 -1057663493#1 -1057663493#0 -1243554241#1 -1243554241#0 -4214424#2 -4214424#1 -4214424#0 -110493362#2 -110493362#0 -40153586 lane_exit_speed_B lane_exit_B"/>
    </vehicle>
    <vehicle id="r_alt_ers_1_4_car_aggr2.0" type="car_aggr2" depart="17480.85">
        <route edges="lane_entry_A -110927104#20 -110927104#200 -110927104#2.59 -110927104#1 -110927104#0 -446397844 -1305315502 -1215806167 -35192916#0 -110927098#2 -110927098#1 -110927098#0 1227355871#1 175771446#1 1227355865 1227355867 382397062 1227355864 175771445#0 lane_exit_speed_D lane_exit_D"/>
    </vehicle>
    <vehicle id="r_ers_alt_1_4_car_aggr5.2" type="car_aggr5" depart="17579.53">
        <route edges="lane_entry_D -175771445#0 -175771445#01 -1227355864 -382397062 -382397061 1227355866 175771446#3 1227355875 -495509369#1 -1215806178 -1212500159#0 -139960776#1 -139960776#0 -495509368#0 -1179840018 -1179840015 -1023263162#1 -1023263162#0 -382397059#3 -382397059#2 -382397059#0 -110493360#8 -110493360#7 -110493360#6 -110493360#4 -110493360#3 -110493360#0 -1057663494 -1057663493#1 -1057663493#0 -1243554241#1 -1243554241#0 -4214424#2 -4214424#1 -4214424#0 -110493362#2 -110493362#0 -40153586 lane_exit_speed_B lane_exit_B"/>
    </vehicle>
    <vehicle id="r_ers_alt_1_4_car_aggr3.0" type="car_aggr3" depart="17626.10">
        <route edges="lane_entry_D -175771445#0 -175771445#01 -1227355864 -382397062 -382397061 1227355866 175771446#3 1227355875 -495509369#1 -1215806178 -1212500159#0 -139960776#1 -139960776#0 -495509368#0 -1179840018 -1179840015 -1023263162#1 -1023263162#0 -382397059#3 -382397059#2 -382397059#0 -110493360#8 -110493360#7 -110493360#6 -110493360#4 -110493360#3 -110493360#0 -1057663494 -1057663493#1 -1057663493#0 -1243554241#1 -1243554241#0 -4214424#2 -4214424#1 -4214424#0 -110493362#2 -110493362#0 -40153586 lane_exit_speed_B lane_exit_B"/>
    </vehicle>
    <vehicle id="r_alt_round4_4_car_aggr4.0" type="car_aggr4" depart="17962.03">
        <route edges="lane_entry_B 40153585 40153586 -40153586 lane_exit_speed_B lane_exit_B"/>
    </vehicle>
    <vehicle id="r_alt_round3_4_car_aggr5.0" type="car_aggr5" depart="18025.54">
        <route edges="lane_entry_B 40153585 40153586 -40153586 lane_exit_speed_B lane_exit_B"/>
    </vehicle>
    <vehicle id="r_and_alt_1_4_car_aggr3.0" type="car_aggr3" depart="18065.22">
        <route edges="lane_entry_D -175771445#0 -175771445#01 -1227355864 -382397062 -382397061 1227355866 175771446#3 1227355875 -495509369#1 -1215806178 -1212500159#0 -139960776#1 -139960776#0 -495509368#0 -1179840018 -1179840015 -1023263162#1 -1023263162#0 -382397059#3 -382397059#2 -382397059#0 -110493360#8 -110493360#7 -110493360#6 -110493360#4 -110493360#3 -110493360#0 -1057663494 -1057663493#1 -1057663493#0 -1243554241#1 -1243554241#0 -4214424#2 -4214424#1 -4214424#0 -110493362#2 -110493362#0 -40153586 lane_exit_speed_B lane_exit_B"/>
    </vehicle>
    <vehicle id="r_ers_alt_1_4_car_aggr3.1" type="car_aggr3" depart="18124.65">