<?xml version="1.0" encoding="UTF-8"?>

<!-- generated on 2025-05-13 10:47:48 by Eclipse SUMO netedit Version 1.22.0
<neteditConfiguration xmlns:xsi="http://www.w3.org/2001/XMLSchema-instance" xsi:noNamespaceSchemaLocation="http://sumo.dlr.de/xsd/neteditConfiguration.xsd">

    <input>
        <additional-files value="/home/epsilon/Documents/bachelor_thesis/thesis_2025_eth_cedric_zeiter/simulation/villages/Schattdorf/schattdorf.add.xml"/>
        <route-files value="/home/epsilon/Documents/bachelor_thesis/thesis_2025_eth_cedric_zeiter/simulation/villages/Schattdorf/Erstfeld/demand.rou.xml"/>
        <sumo-net-file value="/home/epsilon/Documents/bachelor_thesis/thesis_2025_eth_cedric_zeiter/simulation/villages/Schattdorf/osm_original.net.xml"/>
    </input>

    <output>
        <output-file value="/home/epsilon/Documents/bachelor_thesis/thesis_2025_eth_cedric_zeiter/simulation/villages/Schattdorf/osm_original.net.xml"/>
        <output.street-names value="true"/>
    </output>

    <processing>
        <geometry.min-radius.fix.railways value="false"/>
        <geometry.avoid-overlap value="false"/>
        <geometry.max-grade.fix value="false"/>
        <offset.disable-normalization value="true"/>
        <lefthand value="0"/>
    </processing>

    <junctions>
        <no-turnarounds value="true"/>
        <junctions.corner-detail value="5"/>
        <junctions.limit-turn-speed value="5.50"/>
        <rectangular-lane-cut value="0"/>
    </junctions>

    <pedestrian>
        <walkingareas value="0"/>
    </pedestrian>

</neteditConfiguration>
-->

<net version="1.20" junctionCornerDetail="5" limitTurnSpeed="5.50" avoidOverlap="0" xmlns:xsi="http://www.w3.org/2001/XMLSchema-instance" xsi:noNamespaceSchemaLocation="http://sumo.dlr.de/xsd/net_file.xsd">

    <location netOffset="-455283.56,-5149384.03" convBoundary="16672.95,38299.69,18883.14,41489.97" origBoundary="8.309256,46.497869,8.861170,47.051866" projParameter="+proj=utm +zone=32 +ellps=WGS84 +datum=WGS84 +units=m +no_defs"/>

    <type id="highway.cycleway" priority="1" numLanes="1" speed="5.56" allow="bicycle" oneway="0" width="2.00"/>
    <type id="highway.footway" priority="1" numLanes="1" speed="2.78" allow="pedestrian" oneway="1" width="2.00"/>
    <type id="highway.motorway" priority="14" numLanes="2" speed="39.44" allow="private emergency authority army vip passenger hov taxi bus coach delivery truck trailer motorcycle evehicle custom1 custom2" oneway="1"/>
    <type id="highway.motorway_link" priority="9" numLanes="1" speed="22.22" allow="private emergency authority army vip passenger hov taxi bus coach delivery truck trailer motorcycle evehicle custom1 custom2" oneway="1"/>
    <type id="highway.path" priority="1" numLanes="1" speed="5.56" allow="pedestrian bicycle" oneway="0" width="2.00"/>
    <type id="highway.primary" priority="12" numLanes="2" speed="27.78" disallow="tram rail_urban rail rail_electric rail_fast ship" oneway="0"/>
    <type id="highway.residential" priority="3" numLanes="1" speed="13.89" disallow="tram rail_urban rail rail_electric rail_fast ship" oneway="0"/>
    <type id="highway.secondary" priority="11" numLanes="1" speed="27.78" disallow="tram rail_urban rail rail_electric rail_fast ship" oneway="0"/>
    <type id="highway.service" priority="1" numLanes="1" speed="5.56" allow="pedestrian delivery bicycle" oneway="0"/>
    <type id="highway.steps" priority="1" numLanes="1" speed="1.39" allow="pedestrian" oneway="1" width="2.00"/>
    <type id="highway.track" priority="1" numLanes="1" speed="5.56" allow="pedestrian motorcycle moped bicycle" oneway="0"/>
    <type id="highway.unclassified" priority="4" numLanes="1" speed="13.89" disallow="tram rail_urban rail rail_electric rail_fast ship" oneway="0"/>
    <type id="railway.rail" priority="20" numLanes="1" speed="44.44" allow="rail" oneway="1"/>

    <edge id=":10016416370_0" function="internal">
        <lane id=":10016416370_0_0" index="0" allow="pedestrian bicycle" speed="5.56" length="7.00" width="2.00" shape="17569.86,40247.49 17564.94,40252.47"/>
    </edge>
    <edge id=":10016416370_1" function="internal">
        <lane id=":10016416370_1_0" index="0" allow="pedestrian bicycle" speed="5.56" length="7.27" width="2.00" shape="17569.86,40247.49 17568.30,40248.67 17566.70,40249.07 17565.09,40248.69 17563.44,40247.54"/>
    </edge>
    <edge id=":10016416370_2" function="internal">
        <lane id=":10016416370_2_0" index="0" allow="pedestrian bicycle" speed="2.89" length="2.92" width="2.00" shape="17569.86,40247.49 17568.98,40247.67 17568.45,40247.49 17568.27,40246.96 17568.44,40246.08"/>
    </edge>
    <edge id=":10016416370_3" function="internal">
        <lane id=":10016416370_3_0" index="0" allow="pedestrian bicycle" speed="4.52" length="4.12" width="2.00" shape="17564.80,40246.07 17565.74,40246.73 17566.66,40246.96 17567.56,40246.74 17568.44,40246.08"/>
    </edge>
    <edge id=":10016416370_4" function="internal">
        <lane id=":10016416370_4_0" index="0" allow="pedestrian bicycle" speed="5.56" length="7.34" width="2.00" shape="17564.80,40246.07 17566.07,40247.64 17566.52,40249.23 17566.14,40250.84 17564.94,40252.47"/>
    </edge>
    <edge id=":10016416370_5" function="internal">
        <lane id=":10016416370_5_0" index="0" allow="pedestrian bicycle" speed="2.89" length="2.92" width="2.00" shape="17564.80,40246.07 17565.01,40246.95 17564.85,40247.48 17564.33,40247.68 17563.44,40247.54"/>
    </edge>
    <edge id=":10016416370_6" function="internal">
        <lane id=":10016416370_6_0" index="0" allow="pedestrian bicycle" speed="4.40" length="4.05" width="2.00" shape="17563.51,40251.06 17564.18,40250.16 17564.39,40249.28 17564.14,40248.40 17563.44,40247.54"/>
    </edge>
    <edge id=":10016416370_7" function="internal">
        <lane id=":10016416370_7_0" index="0" allow="pedestrian bicycle" speed="5.56" length="7.00" width="2.00" shape="17563.51,40251.06 17568.44,40246.08"/>
    </edge>
    <edge id=":10016416370_8" function="internal">
        <lane id=":10016416370_8_0" index="0" allow="pedestrian bicycle" speed="2.89" length="2.92" width="2.00" shape="17563.51,40251.06 17564.40,40250.88 17564.93,40251.05 17565.11,40251.58 17564.94,40252.47"/>
    </edge>
    <edge id=":10016416371_0" function="internal">
        <lane id=":10016416371_0_0" index="0" allow="pedestrian delivery bicycle" speed="5.56" length="5.23" shape="17545.40,40228.28 17541.52,40224.77"/>
    </edge>
    <edge id=":10016416371_1" function="internal">
        <lane id=":10016416371_1_0" index="0" allow="pedestrian delivery bicycle" speed="3.65" length="4.67" shape="17545.40,40228.28 17545.09,40226.87 17545.35,40226.02 17546.19,40225.72 17547.61,40225.97"/>
    </edge>
    <edge id=":10016416371_2" function="internal">
        <lane id=":10016416371_2_0" index="0" allow="pedestrian bicycle" speed="5.56" length="15.52" width="2.00" shape="17545.40,40228.28 17541.76,40224.77 17540.94,40223.93 17542.94,40225.74 17547.77,40230.22"/>
    </edge>
    <edge id=":10016416371_3" function="internal">
        <lane id=":10016416371_3_0" index="0" allow="pedestrian delivery bicycle" speed="5.56" length="5.36" shape="17543.64,40222.38 17547.61,40225.97"/>
    </edge>
    <edge id=":10016416371_4" function="internal">
        <lane id=":10016416371_4_0" index="0" allow="pedestrian bicycle" speed="5.56" length="9.04" width="2.00" shape="17543.64,40222.38 17545.23,40224.41 17545.73,40226.27 17546.22,40228.13 17547.77,40230.22"/>
    </edge>
    <edge id=":10016416371_5" function="internal">
        <lane id=":10016416371_5_0" index="0" allow="pedestrian delivery bicycle" speed="3.65" length="4.67" shape="17543.64,40222.38 17544.01,40223.77 17543.78,40224.63 17542.95,40224.97 17541.52,40224.77"/>
    </edge>
    <edge id=":10016416371_6" function="internal">
        <lane id=":10016416371_6_0" index="0" allow="pedestrian bicycle" speed="5.56" length="4.42" width="2.00" shape="17543.23,40228.73 17542.52,40227.69 17542.39,40226.73 17542.24,40225.79 17541.52,40224.77"/>
    </edge>
    <edge id=":10016416371_7" function="internal">
        <lane id=":10016416371_7_0" index="0" allow="pedestrian bicycle" speed="3.56" length="5.18" width="2.00" shape="17543.23,40228.73 17547.61,40225.97"/>
    </edge>
    <edge id=":10016416371_8" function="internal">
        <lane id=":10016416371_8_0" index="0" allow="pedestrian bicycle" speed="4.01" length="6.98" width="2.00" shape="17543.23,40228.73 17544.93,40227.40 17546.25,40227.20 17547.20,40228.14 17547.77,40230.22"/>
    </edge>
    <edge id=":10207501878_0" function="internal">
        <lane id=":10207501878_0_0" index="0" allow="delivery" speed="13.89" length="12.85" shape="16759.36,38762.45 16758.64,38765.75 16758.59,38768.74 16758.99,38771.75 16759.61,38775.14"/>
    </edge>
    <edge id=":10207501878_1" function="internal">
        <lane id=":10207501878_1_0" index="0" allow="private emergency authority army vip passenger hov taxi bus coach delivery truck trailer motorcycle evehicle custom1 custom2" speed="22.22" length="12.76" shape="16759.36,38762.45 16755.77,38774.69"/>
    </edge>
    <edge id=":10207501886_0" function="internal">
        <lane id=":10207501886_0_0" index="0" allow="pedestrian delivery bicycle" speed="5.56" length="6.67" shape="16758.43,38834.80 16752.54,38837.92"/>
    </edge>
    <edge id=":10207501886_1" function="internal">
        <lane id=":10207501886_1_0" index="0" allow="pedestrian delivery bicycle" speed="5.56" length="6.09" shape="16754.80,38832.55 16754.62,38834.47 16754.18,38836.01 16753.49,38837.16 16752.54,38837.92"/>
    </edge>
    <edge id=":10301096268_0" function="internal">
        <lane id=":10301096268_0_0" index="0" disallow="tram rail_urban rail rail_electric rail_fast ship cable_car subway" speed="3.65" length="4.67" shape="18067.34,41014.84 18068.74,41014.51 18069.60,41014.76 18069.92,41015.60 18069.68,41017.02"/>
    </edge>
    <edge id=":1038071611_0" function="internal">
        <lane id=":1038071611_0_0" index="0" disallow="tram rail_urban rail rail_electric rail_fast ship cable_car subway" speed="3.65" length="4.67" shape="17772.87,41014.85 17772.06,41016.04 17771.26,41016.44 17770.46,41016.04 17769.67,41014.83"/>
    </edge>
    <edge id=":1038071614_0" function="internal">
        <lane id=":1038071614_0_0" index="0" disallow="tram rail_urban rail rail_electric rail_fast ship cable_car subway" speed="8.16" length="9.81" shape="17797.04,40781.03 17794.75,40780.56 17792.50,40780.83 17790.30,40781.83 17788.14,40783.58"/>
    </edge>
    <edge id=":1038071614_1" function="internal">
        <lane id=":1038071614_1_0" index="0" disallow="tram rail_urban rail rail_electric rail_fast ship cable_car subway" speed="13.89" length="14.29" shape="17797.04,40781.03 17793.70,40779.61 17790.61,40777.96 17787.61,40776.13 17784.53,40774.17"/>
    </edge>
    <edge id=":1038071614_2" function="internal">
        <lane id=":1038071614_2_0" index="0" disallow="tram rail_urban rail rail_electric rail_fast ship cable_car subway" speed="3.66" length="1.45" shape="17797.04,40781.03 17796.31,40779.77"/>
    </edge>
    <edge id=":1038071614_9" function="internal">
        <lane id=":1038071614_9_0" index="0" disallow="tram rail_urban rail rail_electric rail_fast ship cable_car subway" speed="3.66" length="3.25" shape="17796.31,40779.77 17796.30,40778.88 17797.02,40778.33 17798.45,40778.14"/>
    </edge>
    <edge id=":1038071614_3" function="internal">
        <lane id=":1038071614_3_0" index="0" disallow="tram rail_urban rail rail_electric rail_fast ship cable_car subway" speed="13.89" length="13.94" shape="17786.25,40771.47 17789.27,40773.40 17792.17,40775.17 17795.16,40776.75 17798.45,40778.14"/>
    </edge>
    <edge id=":1038071614_4" function="internal">
        <lane id=":1038071614_4_0" index="0" disallow="tram rail_urban rail rail_electric rail_fast ship cable_car subway" speed="7.59" length="4.47" shape="17786.25,40771.47 17789.59,40774.27 17789.64,40774.36"/>
    </edge>
    <edge id=":1038071614_5" function="internal">
        <lane id=":1038071614_5_0" index="0" disallow="tram rail_urban rail rail_electric rail_fast ship cable_car subway" speed="3.65" length="1.44" shape="17786.25,40771.47 17786.83,40772.79"/>
    </edge>
    <edge id=":1038071614_10" function="internal">
        <lane id=":1038071614_10_0" index="0" disallow="tram rail_urban rail rail_electric rail_fast ship cable_car subway" speed="7.59" length="10.36" shape="17789.64,40774.36 17791.02,40777.23 17790.54,40780.33 17788.14,40783.58"/>
    </edge>
    <edge id=":1038071614_11" function="internal">
        <lane id=":1038071614_11_0" index="0" disallow="tram rail_urban rail rail_electric rail_fast ship cable_car subway" speed="3.65" length="3.23" shape="17786.83,40772.79 17786.74,40773.68 17785.97,40774.14 17784.53,40774.17"/>
    </edge>
    <edge id=":1038071614_6" function="internal">
        <lane id=":1038071614_6_0" index="0" disallow="tram rail_urban rail rail_electric rail_fast ship cable_car subway" speed="6.08" length="9.07" shape="17785.60,40781.59 17787.09,40779.58 17787.41,40777.68 17786.56,40775.88 17784.53,40774.17"/>
    </edge>
    <edge id=":1038071614_7" function="internal">
        <lane id=":1038071614_7_0" index="0" disallow="tram rail_urban rail rail_electric rail_fast ship cable_car subway" speed="9.68" length="14.09" shape="17785.60,40781.59 17788.65,40779.14 17791.81,40777.75 17795.08,40777.42 17798.45,40778.14"/>
    </edge>
    <edge id=":1038071614_8" function="internal">
        <lane id=":1038071614_8_0" index="0" disallow="tram rail_urban rail rail_electric rail_fast ship cable_car subway" speed="3.66" length="4.71" shape="17785.60,40781.59 17786.98,40781.14 17787.87,40781.32 17788.25,40782.14 17788.14,40783.58"/>
    </edge>
    <edge id=":10574277738_0" function="internal">
        <lane id=":10574277738_0_0" index="0" disallow="tram rail_urban rail rail_electric rail_fast ship cable_car subway" speed="13.89" length="0.31" shape="17296.71,40159.87 17296.49,40159.65"/>
    </edge>
    <edge id=":10574277738_1" function="internal">
        <lane id=":10574277738_1_0" index="0" disallow="tram rail_urban rail rail_electric rail_fast ship cable_car subway" speed="13.89" length="0.23" shape="17298.84,40157.48 17299.00,40157.64"/>
    </edge>
    <edge id=":10678445331_0" function="internal">
        <lane id=":10678445331_0_0" index="0" allow="pedestrian delivery bicycle" speed="5.56" length="6.11" shape="17377.30,39940.17 17373.75,39945.16"/>
    </edge>
    <edge id=":10678445331_1" function="internal">
        <lane id=":10678445331_1_0" index="0" allow="pedestrian delivery bicycle" speed="3.65" length="4.67" shape="17377.30,39940.17 17375.94,39940.67 17375.06,39940.53 17374.65,39939.73 17374.71,39938.29"/>
    </edge>
    <edge id=":10678445331_2" function="internal">
        <lane id=":10678445331_2_0" index="0" allow="pedestrian delivery bicycle" speed="4.89" length="5.19" shape="17370.34,39938.64 17371.51,39939.51 17372.63,39939.74 17373.69,39939.33 17374.71,39938.29"/>
    </edge>
    <edge id=":10678445331_3" function="internal">
        <lane id=":10678445331_3_0" index="0" allow="pedestrian delivery bicycle" speed="5.56" length="7.77" shape="17370.34,39938.64 17372.31,39940.79 17373.54,39942.60 17374.02,39944.05 17373.75,39945.16"/>
    </edge>
    <edge id=":10678445331_4" function="internal">
        <lane id=":10678445331_4_0" index="0" allow="pedestrian delivery bicycle" speed="5.56" length="6.20" shape="17371.12,39943.34 17374.71,39938.29"/>
    </edge>
    <edge id=":10678445331_5" function="internal">
        <lane id=":10678445331_5_0" index="0" allow="pedestrian delivery bicycle" speed="3.65" length="4.67" shape="17371.12,39943.34 17372.46,39942.81 17373.34,39942.93 17373.77,39943.72 17373.75,39945.16"/>
    </edge>
    <edge id=":10746605141_0" function="internal">
        <lane id=":10746605141_0_0" index="0" allow="pedestrian bicycle" speed="2.89" length="2.92" width="2.00" shape="18304.64,40054.95 18303.76,40054.78 18303.33,40054.41 18303.37,40053.86 18303.87,40053.11"/>
    </edge>
    <edge id=":10765874456_0" function="internal">
        <lane id=":10765874456_0_0" index="0" allow="pedestrian bicycle" speed="5.56" length="0.28" shape="17392.06,39294.69 17392.01,39294.97"/>
    </edge>
    <edge id=":10765874456_1" function="internal">
        <lane id=":10765874456_1_0" index="0" allow="pedestrian delivery bicycle" speed="3.65" length="2.34" shape="17392.06,39294.69 17391.09,39295.76 17390.24,39296.04"/>
    </edge>
    <edge id=":10765874456_4" function="internal">
        <lane id=":10765874456_4_0" index="0" allow="pedestrian delivery bicycle" speed="3.65" length="2.34" shape="17390.24,39296.04 17389.51,39295.53 17388.89,39294.22"/>
    </edge>
    <edge id=":10765874456_2" function="internal">
        <lane id=":10765874456_2_0" index="0" allow="pedestrian bicycle" speed="5.56" length="0.14" shape="17388.87,39294.36 17388.89,39294.22"/>
    </edge>
    <edge id=":10765874456_3" function="internal">
        <lane id=":10765874456_3_0" index="0" allow="pedestrian motorcycle moped bicycle" speed="3.65" length="2.34" shape="17388.87,39294.36 17389.88,39293.33 17390.74,39293.09"/>
    </edge>
    <edge id=":10765874456_5" function="internal">
        <lane id=":10765874456_5_0" index="0" allow="pedestrian motorcycle moped bicycle" speed="3.65" length="2.34" shape="17390.74,39293.09 17391.45,39293.63 17392.01,39294.97"/>
    </edge>
    <edge id=":10765874478_0" function="internal">
        <lane id=":10765874478_0_0" index="0" allow="pedestrian bicycle" speed="2.89" length="2.92" width="2.00" shape="17573.99,39553.94 17573.38,39553.28 17573.25,39552.73 17573.61,39552.30 17574.46,39551.99"/>
    </edge>
    <edge id=":10765874498_0" function="internal">
        <lane id=":10765874498_0_0" index="0" allow="pedestrian delivery bicycle" speed="3.65" length="4.67" shape="17220.10,39959.48 17221.51,39959.18 17222.36,39959.46 17222.65,39960.31 17222.38,39961.72"/>
    </edge>
    <edge id=":10765874499_0" function="internal">
        <lane id=":10765874499_0_0" index="0" allow="pedestrian bicycle" speed="3.47" length="3.69" width="2.00" shape="17155.13,39999.89 17154.07,40000.31 17153.37,40000.21 17153.03,39999.59 17153.05,39998.45"/>
    </edge>
    <edge id=":10765887109_0" function="internal">
        <lane id=":10765887109_0_0" index="0" allow="pedestrian delivery bicycle" speed="4.83" length="7.37" shape="17222.25,40102.86 17220.16,40101.14 17218.71,40100.66 17217.90,40101.43 17217.74,40103.44"/>
    </edge>
    <edge id=":10765887109_1" function="internal">
        <lane id=":10765887109_1_0" index="0" allow="pedestrian delivery bicycle" speed="5.56" length="16.35" shape="17222.25,40102.86 17219.11,40099.21 17217.17,40095.56 17216.44,40091.92 17216.91,40088.26"/>
    </edge>
    <edge id=":10765887109_2" function="internal">
        <lane id=":10765887109_2_0" index="0" allow="pedestrian delivery bicycle" speed="3.87" length="5.53" shape="17222.25,40102.86 17222.84,40101.26 17223.66,40100.58 17224.69,40100.82 17225.94,40101.98"/>
    </edge>
    <edge id=":10765887109_3" function="internal">
        <lane id=":10765887109_3_0" index="0" allow="pedestrian delivery bicycle" speed="5.56" length="14.77" shape="17219.98,40089.17 17219.75,40092.02 17220.66,40095.10 17222.73,40098.42 17225.94,40101.98"/>
    </edge>
    <edge id=":10765887109_4" function="internal">
        <lane id=":10765887109_4_0" index="0" allow="pedestrian delivery bicycle" speed="5.56" length="14.52" shape="17219.98,40089.17 17218.99,40092.72 17218.22,40096.23 17217.77,40099.78 17217.74,40103.44"/>
    </edge>
    <edge id=":10765887109_5" function="internal">
        <lane id=":10765887109_5_0" index="0" allow="pedestrian delivery bicycle" speed="3.65" length="4.67" shape="17219.98,40089.17 17218.87,40090.10 17217.99,40090.25 17217.34,40089.64 17216.91,40088.26"/>
    </edge>
    <edge id=":10765887109_6" function="internal">
        <lane id=":10765887109_6_0" index="0" allow="pedestrian delivery bicycle" speed="5.56" length="14.99" shape="17214.51,40102.99 17214.56,40099.26 17215.07,40095.55 17215.90,40091.89 17216.91,40088.26"/>
    </edge>
    <edge id=":10765887109_7" function="internal">
        <lane id=":10765887109_7_0" index="0" allow="pedestrian delivery bicycle" speed="5.56" length="18.39" shape="17214.51,40102.99 17214.94,40098.10 17216.98,40096.31 17220.65,40097.60 17225.94,40101.98"/>
    </edge>
    <edge id=":10765887109_8" function="internal">
        <lane id=":10765887109_8_0" index="0" allow="pedestrian delivery bicycle" speed="3.67" length="4.76" shape="17214.51,40102.99 17215.48,40101.89 17216.35,40101.60 17217.10,40102.12 17217.74,40103.44"/>
    </edge>
    <edge id=":10799378670_0" function="internal">
        <lane id=":10799378670_0_0" index="0" allow="pedestrian bicycle" speed="2.89" length="2.92" width="2.00" shape="17684.42,40600.72 17685.24,40600.36 17685.80,40600.42 17686.09,40600.90 17686.10,40601.80"/>
    </edge>
    <edge id=":10799378673_0" function="internal">
        <lane id=":10799378673_0_0" index="0" allow="pedestrian delivery bicycle" speed="5.56" length="8.36" shape="17675.04,40617.93 17668.11,40613.27"/>
    </edge>
    <edge id=":10799378673_1" function="internal">
        <lane id=":10799378673_1_0" index="0" allow="pedestrian bicycle" speed="5.56" length="11.51" width="2.00" shape="17675.04,40617.93 17673.29,40616.09 17673.07,40613.92 17674.37,40611.43 17677.20,40608.62"/>
    </edge>
    <edge id=":10799378673_2" function="internal">
        <lane id=":10799378673_2_0" index="0" allow="pedestrian delivery bicycle" speed="3.65" length="4.67" shape="17675.04,40617.93 17674.49,40616.60 17674.61,40615.71 17675.38,40615.27 17676.83,40615.28"/>
    </edge>
    <edge id=":10799378673_3" function="internal">
        <lane id=":10799378673_3_0" index="0" allow="pedestrian bicycle" speed="4.59" length="5.30" width="2.00" shape="17677.49,40610.98 17676.26,40612.23 17675.74,40613.36 17675.93,40614.38 17676.83,40615.28"/>
    </edge>
    <edge id=":10799378673_4" function="internal">
        <lane id=":10799378673_4_0" index="0" allow="pedestrian bicycle" speed="5.56" length="10.34" width="2.00" shape="17677.49,40610.98 17674.75,40612.90 17672.28,40613.92 17670.06,40614.05 17668.11,40613.27"/>
    </edge>
    <edge id=":10799378673_5" function="internal">
        <lane id=":10799378673_5_0" index="0" allow="pedestrian bicycle" speed="3.06" length="3.47" width="2.00" shape="17677.49,40610.98 17676.53,40610.50 17676.16,40609.95 17676.38,40609.32 17677.20,40608.62"/>
    </edge>
    <edge id=":10799378673_6" function="internal">
        <lane id=":10799378673_6_0" index="0" allow="pedestrian bicycle" speed="5.56" length="8.08" width="2.00" shape="17669.89,40610.61 17671.36,40611.17 17673.07,40611.03 17675.01,40610.18 17677.20,40608.62"/>
    </edge>
    <edge id=":10799378673_7" function="internal">
        <lane id=":10799378673_7_0" index="0" allow="pedestrian delivery bicycle" speed="5.56" length="8.36" shape="17669.89,40610.61 17676.83,40615.28"/>
    </edge>
    <edge id=":10799378673_8" function="internal">
        <lane id=":10799378673_8_0" index="0" allow="pedestrian delivery bicycle" speed="3.65" length="4.67" shape="17669.89,40610.61 17670.44,40611.95 17670.33,40612.83 17669.55,40613.27 17668.11,40613.27"/>
    </edge>
    <edge id=":10799378674_0" function="internal">
        <lane id=":10799378674_0_0" index="0" allow="pedestrian bicycle" speed="2.89" length="2.92" width="2.00" shape="17691.26,40556.91 17692.12,40556.63 17692.67,40556.74 17692.91,40557.25 17692.84,40558.15"/>
    </edge>
    <edge id=":10799378675_0" function="internal">
        <lane id=":10799378675_0_0" index="0" allow="pedestrian delivery bicycle" speed="5.56" length="7.01" shape="17658.30,40606.66 17652.49,40602.74"/>
    </edge>
    <edge id=":10799378675_1" function="internal">
        <lane id=":10799378675_1_0" index="0" allow="pedestrian bicycle" speed="5.56" length="9.04" width="2.00" shape="17658.30,40606.66 17656.79,40605.15 17656.28,40603.34 17656.79,40601.22 17658.31,40598.81"/>
    </edge>
    <edge id=":10799378675_2" function="internal">
        <lane id=":10799378675_2_0" index="0" allow="pedestrian delivery bicycle" speed="3.65" length="4.67" shape="17658.30,40606.66 17657.75,40605.32 17657.87,40604.44 17658.64,40604.00 17660.09,40604.00"/>
    </edge>
    <edge id=":10799378675_3" function="internal">
        <lane id=":10799378675_3_0" index="0" allow="pedestrian bicycle" speed="4.58" length="4.59" width="2.00" shape="17659.88,40600.04 17659.15,40601.23 17658.95,40602.28 17659.26,40603.21 17660.09,40604.00"/>
    </edge>
    <edge id=":10799378675_4" function="internal">
        <lane id=":10799378675_4_0" index="0" allow="pedestrian bicycle" speed="5.56" length="8.74" width="2.00" shape="17659.88,40600.04 17657.94,40602.09 17656.06,40603.23 17654.24,40603.44 17652.49,40602.74"/>
    </edge>
    <edge id=":10799378675_5" function="internal">
        <lane id=":10799378675_5_0" index="0" allow="pedestrian bicycle" speed="2.89" length="2.92" width="2.00" shape="17659.88,40600.04 17659.02,40600.32 17658.47,40600.21 17658.24,40599.70 17658.31,40598.81"/>
    </edge>
    <edge id=":10799378675_6" function="internal">
        <lane id=":10799378675_6_0" index="0" allow="pedestrian bicycle" speed="5.04" length="4.72" width="2.00" shape="17654.27,40600.09 17655.27,40600.51 17656.27,40600.43 17657.28,40599.87 17658.31,40598.81"/>
    </edge>
    <edge id=":10799378675_7" function="internal">
        <lane id=":10799378675_7_0" index="0" allow="pedestrian delivery bicycle" speed="5.56" length="7.01" shape="17654.27,40600.09 17660.09,40604.00"/>
    </edge>
    <edge id=":10799378675_8" function="internal">
        <lane id=":10799378675_8_0" index="0" allow="pedestrian delivery bicycle" speed="3.65" length="4.67" shape="17654.27,40600.09 17654.82,40601.42 17654.71,40602.31 17653.93,40602.75 17652.49,40602.74"/>
    </edge>
    <edge id=":10799381797_0" function="internal">
        <lane id=":10799381797_0_0" index="0" allow="pedestrian bicycle" speed="2.89" length="2.92" width="2.00" shape="17680.27,40534.44 17681.13,40534.15 17681.67,40534.26 17681.92,40534.77 17681.85,40535.66"/>
    </edge>
    <edge id=":10799381798_0" function="internal">
        <lane id=":10799381798_0_0" index="0" allow="pedestrian delivery bicycle" speed="5.56" length="6.93" shape="17639.74,40593.78 17634.23,40589.58"/>
    </edge>
    <edge id=":10799381798_1" function="internal">
        <lane id=":10799381798_1_0" index="0" allow="pedestrian bicycle" speed="5.56" length="8.77" width="2.00" shape="17639.74,40593.78 17638.42,40592.26 17638.03,40590.47 17638.57,40588.39 17640.04,40586.04"/>
    </edge>
    <edge id=":10799381798_2" function="internal">
        <lane id=":10799381798_2_0" index="0" allow="pedestrian delivery bicycle" speed="3.65" length="4.67" shape="17639.74,40593.78 17639.28,40592.42 17639.45,40591.54 17640.26,40591.15 17641.70,40591.25"/>
    </edge>
    <edge id=":10799381798_3" function="internal">
        <lane id=":10799381798_3_0" index="0" allow="pedestrian bicycle" speed="4.66" length="4.53" width="2.00" shape="17641.62,40587.27 17640.91,40588.44 17640.69,40589.49 17640.95,40590.43 17641.70,40591.25"/>
    </edge>
    <edge id=":10799381798_4" function="internal">
        <lane id=":10799381798_4_0" index="0" allow="pedestrian bicycle" speed="5.56" length="8.72" width="2.00" shape="17641.62,40587.27 17639.71,40589.28 17637.84,40590.33 17636.01,40590.43 17634.23,40589.58"/>
    </edge>
    <edge id=":10799381798_5" function="internal">
        <lane id=":10799381798_5_0" index="0" allow="pedestrian bicycle" speed="2.89" length="2.92" width="2.00" shape="17641.62,40587.27 17640.77,40587.56 17640.22,40587.45 17639.98,40586.94 17640.04,40586.04"/>
    </edge>
    <edge id=":10799381798_6" function="internal">
        <lane id=":10799381798_6_0" index="0" allow="pedestrian bicycle" speed="4.88" length="4.55" width="2.00" shape="17636.15,40587.02 17637.13,40587.52 17638.11,40587.52 17639.08,40587.03 17640.04,40586.04"/>
    </edge>
    <edge id=":10799381798_7" function="internal">
        <lane id=":10799381798_7_0" index="0" allow="pedestrian delivery bicycle" speed="5.56" length="6.98" shape="17636.15,40587.02 17641.70,40591.25"/>
    </edge>
    <edge id=":10799381798_8" function="internal">
        <lane id=":10799381798_8_0" index="0" allow="pedestrian delivery bicycle" speed="3.65" length="4.67" shape="17636.15,40587.02 17636.63,40588.39 17636.47,40589.26 17635.67,40589.66 17634.23,40589.58"/>
    </edge>
    <edge id=":10799636451_0" function="internal">
        <lane id=":10799636451_0_0" index="0" allow="pedestrian bicycle" speed="2.89" length="2.92" width="2.00" shape="18358.89,39934.02 18359.47,39934.71 18359.57,39935.26 18359.19,39935.67 18358.33,39935.94"/>
    </edge>
    <edge id=":10799636462_0" function="internal">
        <lane id=":10799636462_0_0" index="0" allow="pedestrian bicycle" speed="2.89" length="2.92" width="2.00" shape="18305.27,39961.90 18304.63,39961.26 18304.49,39960.72 18304.84,39960.28 18305.67,39959.94"/>
    </edge>
    <edge id=":10799636485_0" function="internal">
        <lane id=":10799636485_0_0" index="0" disallow="tram rail_urban rail rail_electric rail_fast ship cable_car subway" speed="3.65" length="4.67" shape="18207.60,40024.30 18206.25,40023.77 18205.70,40023.08 18205.92,40022.21 18206.92,40021.18"/>
    </edge>
    <edge id=":10802591520_0" function="internal">
        <lane id=":10802591520_0_0" index="0" allow="pedestrian motorcycle moped bicycle" speed="3.65" length="4.67" shape="17464.35,39060.85 17463.01,39060.32 17462.46,39059.62 17462.68,39058.76 17463.69,39057.73"/>
    </edge>
    <edge id=":10936579636_0" function="internal">