<?xml version="1.0" encoding="UTF-8"?>

<!-- generated on 2025-05-11 22:58:18 by Eclipse SUMO netedit Version 1.23.1
-->

<additional xmlns:xsi="http://www.w3.org/2001/XMLSchema-instance" xsi:noNamespaceSchemaLocation="http://sumo.dlr.de/xsd/additional_file.xsd">
    <!-- Shapes -->
    <poly id="po_0" color="red" fill="0" layer="0.00" shape="16900.000000,41500.000000 16900.000000,38800.000000 16900.000000,38300.000000 19000.000000,38300.000000 19000.000000,41500.000000 16900.000000,41500.000000"/>
    <poi id="poi_0" color="255,0,253" layer="202.00" x="17600.27" y="38321.08" width="20.00" height="10.00"/>
    <poi id="poi_1" color="32,255,0" layer="202.00" x="17657.03" y="38325.02" width="20.00" height="10.00"/>
    <poi id="poi_2" color="32,255,0" layer="202.00" x="18855.70" y="41290.88" width="20.00" height="10.00"/>
    <poi id="poi_3" color="32,255,0" layer="202.00" x="18109.03" y="41469.85" width="20.00" height="10.00"/>
    <poi id="poi_4" color="232,0,255" layer="202.00" x="18170.72" y="41479.57" width="20.00" height="10.00"/>
    <poi id="poi_5" color="232,0,255" layer="202.00" x="18909.07" y="41261.43" width="20.00" height="10.00"/>
    <poi id="poi_6" color="232,0,255" layer="202.00" x="16948.69" y="40778.86" width="20.00" height="10.00"/>
    <poi id="poi_7" color="0,255,8" layer="202.00" x="16896.62" y="40767.20" width="20.00" height="10.00"/>
</additional>
