<?xml version="1.0" encoding="UTF-8"?>

<!-- generated on 2025-05-20 13:46:29 by Eclipse SUMO duarouter Version 1.22.0
<duarouterConfiguration xmlns:xsi="http://www.w3.org/2001/XMLSchema-instance" xsi:noNamespaceSchemaLocation="http://sumo.dlr.de/xsd/duarouterConfiguration.xsd">

    <input>
        <net-file value="../simulation/villages/Wassen/wassen_osm.net.xml"/>
        <additional-files value="data/vehicle_types_new.xml"/>
        <route-files value="output/reconstructed_trips_wassen.trips.xml"/>
    </input>

    <output>
        <output-file value="output/20_11_routes_wassen.rou.xml"/>
    </output>

</duarouterConfiguration>
-->

<routes xmlns:xsi="http://www.w3.org/2001/XMLSchema-instance" xsi:noNamespaceSchemaLocation="http://sumo.dlr.de/xsd/routes_file.xsd">
    <vType id="car_aggr4" maxSpeed="40.00" speedFactor="normc(0.95,0.12,0.20,2.00)" vClass="passenger" impatience="3.50" minGapLat="0.40" lcStrategic="15" lcCooperative="0.1" lcSpeedGain="10.0" lcKeepRight="0.2" lcSublane="5.0" lcPushy="2.6" lcPushyGap="0.2" lcAssertive="4.2" lcImpatience="2.5" lcTimeToImpatience="6" lcSigma="1.0" accel="2.8" decel="6.0" tau="3.0">
        <param key="laneChangeModel" value="SL2015"/>
    </vType>
    <vehicle id="r_axs_tun_aEr_eGo_1_car_aggr4.0" type="car_aggr4" depart="5414.21">
        <route edges="lane_entry_A 335271800.30 33527180.117 1235288639 405922614 33523589 33523610 1239461740 33523591#0 33523591#1 33523591#2 440087233#0 440087233#1 440087233#2 440087233#3 1081633633 372395815#1 1239461751#1 1239461751#2 1184531525#0 1184531525#1 477571851#0 477571870 477571859 477570854#0 477570854#1 1239461755#0 1239461755#1 477570859#1 477570853#0 477570853#1 1194474094#0 1194474094#1 33523584#0 33523584#1 33523584#2 33521940#0 33521940#1 33521940#2 33521940#3 33521940#4 33521940#6 109543871 1194954728 1194474097#0 1194474097#1 1194474097#2 1194474097#3 1158670165#0 1158670165#1 838832269 184920625 838832270#0 838832270#1 110709004 883000239#0 883000239#1 883000239#2 883000239#3 883000239#4 1194954738 1194954739 34077046#0 34077046#1 34077046#2 lane_exit_speed_D lane_exit_D"/>
    </vehicle>
    <vType id="car_aggr3" maxSpeed="40.00" speedFactor="normc(0.90,0.10,0.20,2.00)" vClass="passenger" impatience="3.00" minGapLat="0.50" lcStrategic="25" lcCooperative="0.2" lcSpeedGain="9.0" lcKeepRight="0.3" lcSublane="4.0" lcPushy="2.2" lcPushyGap="0.3" lcAssertive="3.5" lcImpatience="2.0" lcTimeToImpatience="9" lcSigma="0.8" accel="2.5" decel="5.0" tau="3.5">
        <param key="laneChangeModel" value="SL2015"/>
    </vType>
    <vehicle id="r_luz_tun_aAm_eGo_1_car_aggr3.0" type="car_aggr3" depart="7602.09">
        <route edges="lane_entry_A 335271800.30 33527180.117 1235288639 405922614 33523589 33523610 1239461740 33523591#0 33523591#1 33523591#2 440087233#0 440087233#1 440087233#2 440087233#3 1081633633 372395815#1 1239461751#1 1239461751#2 1184531525#0 1184531525#1 477571851#0 477571870 477571859 477570854#0 477570854#1 1239461755#0 1239461755#1 477570859#1 477570853#0 477570853#1 1194474094#0 1194474094#1 33523584#0 33523584#1 33523584#2 33521940#0 33521940#1 33521940#2 33521940#3 33521940#4 33521940#6 109543871 1194954728 1194474097#0 1194474097#1 1194474097#2 1194474097#3 1158670165#0 1158670165#1 838832269 184920625 838832270#0 838832270#1 110709004 883000239#0 883000239#1 883000239#2 883000239#3 883000239#4 1194954738 1194954739 34077046#0 34077046#1 34077046#2 lane_exit_speed_D lane_exit_D"/>
    </vehicle>
    <vType id="big_truck" length="12.00" maxSpeed="22.00" speedFactor="normc(0.75,0.04,0.20,2.00)" vClass="truck" impatience="1.80" minGapLat="0.80" lcStrategic="200" lcCooperative="0.1" lcSpeedGain="4.0" lcKeepRight="0.8" lcSublane="1.5" lcPushy="1.2" lcPushyGap="0.3" lcAssertive="2.5" lcImpatience="1.5" lcTimeToImpatience="10" lcSigma="0.4" accel="1.4" decel="3.2" tau="3.5">
        <param key="laneChangeModel" value="SL2015"/>
    </vType>
    <vehicle id="r_luz_tun_aAm_eGo_1_big_truck.0" type="big_truck" depart="7763.70">
        <route edges="lane_entry_A 335271800.30 33527180.117 1235288639 405922614 33523589 33523610 1239461740 33523591#0 33523591#1 33523591#2 440087233#0 440087233#1 440087233#2 440087233#3 1081633633 372395815#1 1239461751#1 1239461751#2 1184531525#0 1184531525#1 477571851#0 477571870 477571859 477570854#0 477570854#1 1239461755#0 1239461755#1 477570859#1 477570853#0 477570853#1 1194474094#0 1194474094#1 33523584#0 33523584#1 33523584#2 33521940#0 33521940#1 33521940#2 33521940#3 33521940#4 33521940#6 109543871 1194954728 1194474097#0 1194474097#1 1194474097#2 1194474097#3 1158670165#0 1158670165#1 838832269 184920625 838832270#0 838832270#1 110709004 883000239#0 883000239#1 883000239#2 883000239#3 883000239#4 1194954738 1194954739 34077046#0 34077046#1 34077046#2 lane_exit_speed_D lane_exit_D"/>
    </vehicle>
    <vehicle id="r_axs_tun_aEr_eGo_1_car_aggr3.0" type="car_aggr3" depart="8744.27">
        <route edges="lane_entry_A 335271800.30 33527180.117 1235288639 405922614 33523589 33523610 1239461740 33523591#0 33523591#1 33523591#2 440087233#0 440087233#1 440087233#2 440087233#3 1081633633 372395815#1 1239461751#1 1239461751#2 1184531525#0 1184531525#1 477571851#0 477571870 477571859 477570854#0 477570854#1 1239461755#0 1239461755#1 477570859#1 477570853#0 477570853#1 1194474094#0 1194474094#1 33523584#0 33523584#1 33523584#2 33521940#0 33521940#1 33521940#2 33521940#3 33521940#4 33521940#6 109543871 1194954728 1194474097#0 1194474097#1 1194474097#2 1194474097#3 1158670165#0 1158670165#1 838832269 184920625 838832270#0 838832270#1 110709004 883000239#0 883000239#1 883000239#2 883000239#3 883000239#4 1194954738 1194954739 34077046#0 34077046#1 34077046#2 lane_exit_speed_D lane_exit_D"/>
    </vehicle>
    <vType id="small_truck" length="6.50" maxSpeed="28.00" speedFactor="normc(0.85,0.05,0.20,2.00)" vClass="delivery" impatience="2.50" minGapLat="0.60" lcStrategic="35" lcCooperative="0.3" lcSpeedGain="6.0" lcKeepRight="0.4" lcSublane="2.0" lcPushy="1.8" lcPushyGap="0.4" lcAssertive="2.5" lcImpatience="1.8" lcTimeToImpatience="10" lcSigma="0.5" accel="2.2" decel="4.0" tau="2.8">
        <param key="laneChangeModel" value="SL2015"/>
    </vType>
    <vehicle id="r_axs_tun_aEr_eGo_1_small_truck.0" type="small_truck" depart="8979.75">
        <route edges="lane_entry_A 335271800.30 33527180.117 1235288639 405922614 33523589 33523610 1239461740 33523591#0 33523591#1 33523591#2 440087233#0 440087233#1 440087233#2 440087233#3 1081633633 372395815#1 1239461751#1 1239461751#2 1184531525#0 1184531525#1 477571851#0 477571870 477571859 477570854#0 477570854#1 1239461755#0 1239461755#1 477570859#1 477570853#0 477570853#1 1194474094#0 1194474094#1 33523584#0 33523584#1 33523584#2 33521940#0 33521940#1 33521940#2 33521940#3 33521940#4 33521940#6 109543871 1194954728 1194474097#0 1194474097#1 1194474097#2 1194474097#3 1158670165#0 1158670165#1 838832269 184920625 838832270#0 838832270#1 110709004 883000239#0 883000239#1 883000239#2 883000239#3 883000239#4 1194954738 1194954739 34077046#0 34077046#1 34077046#2 lane_exit_speed_D lane_exit_D"/>
    </vehicle>
    <vehicle id="r_and_alt_1_2_car_aggr4.0" type="car_aggr4" depart="9181.41">
        <route edges="lane_entry_D -34077046#3 -34077046#2 -34077046#1 -34077046#0 -1194954739 -1194954738 -883000239#4 -883000239#3 -883000239#2 -883000239#1 -883000239#0 -33521939 -838832270#1 -838832270#0 -184920626 -838832269 -1158670165#1 -1158670165#0 -1194474097#3 -1194474097#2 -1194474097#1 -1194474097#0 -1194954728 -109543871 -33521940#6 -33521940#4 -33521940#3 -33521940#2 -33521940#1 -33521940#0 -33523584#2 -33523584#1 -33523584#0 -1194474094#1 -1194474094#0 -477570853#1 -477570853#0 477570856#1 477570856#2 1184531523 1184531524#1 -477571859 477571862#0 477571882 -1239461751#2 -1239461751#1 -1239461751#0 -372395815#0 -1239461745 -440087233#2 -440087233#1 -440087233#0 -33523591#2 -33523591#1 -33523591#0 -1239461740 -33523610 -33523609 -405922614 -1235288639 -33527180 lane_exit_speed_A lane_exit_A"/>
    </vehicle>
    <vType id="car_aggr5" maxSpeed="45.00" speedFactor="normc(1.00,0.15,0.20,2.00)" vClass="passenger" impatience="4.00" minGapLat="0.30" lcStrategic="5" lcCooperative="0.0" lcSpeedGain="11.0" lcKeepRight="0.0" lcSublane="6.0" lcPushy="3.0" lcPushyGap="0.1" lcAssertive="5.0" lcImpatience="3.0" lcTimeToImpatience="3" lcSigma="1.2" accel="3.0" decel="8.0" tau="2.5">
        <param key="laneChangeModel" value="SL2015"/>
    </vType>
    <vehicle id="r_axs_tun_aEr_eWa_2_car_aggr5.0" type="car_aggr5" depart="12002.40">
        <route edges="lane_entry_A 335271800.30 33527180.117 1235288639 405922614 33523589 33523610 1239461740 33523591#0 33523591#1 33523591#2 440087233#0 440087233#1 440087233#2 440087233#3 1081633633 372395815#1 1239461751#1 1239461751#2 1184531525#0 1184531525#1 477571851#0 477571870 477571859 477570854#0 477570855 26245639-AddedOnRampEdge lane_exit_speed_B lane_exit_B"/>
    </vehicle>
    <vType id="car_aggr2" maxSpeed="35.00" speedFactor="normc(0.85,0.09,0.20,2.00)" vClass="passenger" impatience="2.50" minGapLat="0.60" lcStrategic="40" lcCooperative="0.3" lcSpeedGain="8.0" lcKeepRight="0.5" lcSublane="3.0" lcPushy="1.8" lcPushyGap="0.4" lcAssertive="2.8" lcImpatience="1.5" lcTimeToImpatience="12" lcSigma="0.6" accel="2.2" decel="4.0" tau="4.5">
        <param key="laneChangeModel" value="SL2015"/>
    </vType>
    <vehicle id="r_tun_axs_KS_____3_car_aggr2.0" type="car_aggr2" depart="12636.19">
        <route edges="lane_entry_D -34077046#3 -34077046#2 -34077046#1 -34077046#0 -1194954739 -1194954738 -883000239#4 -883000239#3 -883000239#2 -883000239#1 -883000239#0 -33521939 -838832270#1 -838832270#0 -184920626 -838832269 -1158670165#1 -1158670165#0 -1194474097#3 -1194474097#2 -1194474097#1 -1194474097#0 -1194954728 -109543871 -33521940#6 -33521940#4 -33521940#3 -33521940#2 -33521940#1 -33521940#0 -33523584#2 -33523584#1 -33523584#0 -1194474094#1 -1194474094#0 -477570853#1 -477570853#0 477570856#1 477570856#2 1184531523 1184531524#1 -477571859 477571862#0 477571882 -1239461751#2 -1239461751#1 -1239461751#0 -372395815#0 -1239461745 -440087233#2 -440087233#1 -440087233#0 -33523591#2 -33523591#1 -33523591#0 -1239461740 -33523610 -33523609 -405922614 -1235288639 -33527180 lane_exit_speed_A lane_exit_A"/>
    </vehicle>
    <vehicle id="r_tun_axs_KS_____3_car_aggr3.0" type="car_aggr3" depart="13074.90">
        <route edges="lane_entry_D -34077046#3 -34077046#2 -34077046#1 -34077046#0 -1194954739 -1194954738 -883000239#4 -883000239#3 -883000239#2 -883000239#1 -883000239#0 -33521939 -838832270#1 -838832270#0 -184920626 -838832269 -1158670165#1 -1158670165#0 -1194474097#3 -1194474097#2 -1194474097#1 -1194474097#0 -1194954728 -109543871 -33521940#6 -33521940#4 -33521940#3 -33521940#2 -33521940#1 -33521940#0 -33523584#2 -33523584#1 -33523584#0 -1194474094#1 -1194474094#0 -477570853#1 -477570853#0 477570856#1 477570856#2 1184531523 1184531524#1 -477571859 477571862#0 477571882 -1239461751#2 -1239461751#1 -1239461751#0 -372395815#0 -1239461745 -440087233#2 -440087233#1 -440087233#0 -33523591#2 -33523591#1 -33523591#0 -1239461740 -33523610 -33523609 -405922614 -1235288639 -33527180 lane_exit_speed_A lane_exit_A"/>
    </vehicle>
    <vehicle id="r_tun_axs_KS_____3_car_aggr3.1" type="car_aggr3" depart="13935.88">
        <route edges="lane_entry_D -34077046#3 -34077046#2 -34077046#1 -34077046#0 -1194954739 -1194954738 -883000239#4 -883000239#3 -883000239#2 -883000239#1 -883000239#0 -33521939 -838832270#1 -838832270#0 -184920626 -838832269 -1158670165#1 -1158670165#0 -1194474097#3 -1194474097#2 -1194474097#1 -1194474097#0 -1194954728 -109543871 -33521940#6 -33521940#4 -33521940#3 -33521940#2 -33521940#1 -33521940#0 -33523584#2 -33523584#1 -33523584#0 -1194474094#1 -1194474094#0 -477570853#1 -477570853#0 477570856#1 477570856#2 1184531523 1184531524#1 -477571859 477571862#0 477571882 -1239461751#2 -1239461751#1 -1239461751#0 -372395815#0 -1239461745 -440087233#2 -440087233#1 -440087233#0 -33523591#2 -33523591#1 -33523591#0 -1239461740 -33523610 -33523609 -405922614 -1235288639 -33527180 lane_exit_speed_A lane_exit_A"/>
    </vehicle>
    <vehicle id="r_tun_axs_KS_____3_car_aggr3.2" type="car_aggr3" depart="14220.87">
        <route edges="lane_entry_D -34077046#3 -34077046#2 -34077046#1 -34077046#0 -1194954739 -1194954738 -883000239#4 -883000239#3 -883000239#2 -883000239#1 -883000239#0 -33521939 -838832270#1 -838832270#0 -184920626 -838832269 -1158670165#1 -1158670165#0 -1194474097#3 -1194474097#2 -1194474097#1 -1194474097#0 -1194954728 -109543871 -33521940#6 -33521940#4 -33521940#3 -33521940#2 -33521940#1 -33521940#0 -33523584#2 -33523584#1 -33523584#0 -1194474094#1 -1194474094#0 -477570853#1 -477570853#0 477570856#1 477570856#2 1184531523 1184531524#1 -477571859 477571862#0 477571882 -1239461751#2 -1239461751#1 -1239461751#0 -372395815#0 -1239461745 -440087233#2 -440087233#1 -440087233#0 -33523591#2 -33523591#1 -33523591#0 -1239461740 -33523610 -33523609 -405922614 -1235288639 -33527180 lane_exit_speed_A lane_exit_A"/>
    </vehicle>
    <vehicle id="r_and_alt_1_4_car_aggr3.0" type="car_aggr3" depart="16790.56">
        <route edges="lane_entry_D -34077046#3 -34077046#2 -34077046#1 -34077046#0 -1194954739 -1194954738 -883000239#4 -883000239#3 -883000239#2 -883000239#1 -883000239#0 -33521939 -838832270#1 -838832270#0 -184920626 -838832269 -1158670165#1 -1158670165#0 -1194474097#3 -1194474097#2 -1194474097#1 -1194474097#0 -1194954728 -109543871 -33521940#6 -33521940#4 -33521940#3 -33521940#2 -33521940#1 -33521940#0 -33523584#2 -33523584#1 -33523584#0 -1194474094#1 -1194474094#0 -477570853#1 -477570853#0 477570856#1 477570856#2 1184531523 1184531524#1 -477571859 477571862#0 477571882 -1239461751#2 -1239461751#1 -1239461751#0 -372395815#0 -1239461745 -440087233#2 -440087233#1 -440087233#0 -33523591#2 -33523591#1 -33523591#0 -1239461740 -33523610 -33523609 -405922614 -1235288639 -33527180 lane_exit_speed_A lane_exit_A"/>
    </vehicle>
    <vehicle id="r_luz_tun_aAm_eWa_4_car_aggr4.0" type="car_aggr4" depart="16819.13">
        <route edges="lane_entry_A 335271800.30 33527180.117 1235288639 405922614 33523589 33523610 1239461740 33523591#0 33523591#1 33523591#2 440087233#0 440087233#1 440087233#2 440087233#3 1081633633 372395815#1 1239461751#1 1239461751#2 1184531525#0 1184531525#1 477571851#0 477571870 477571859 477570854#0 477570855 26245639-AddedOnRampEdge lane_exit_speed_B lane_exit_B"/>
    </vehicle>
    <vehicle id="r_luz_tun_aAm_eWa_4_car_aggr3.0" type="car_aggr3" depart="17388.85">
        <route edges="lane_entry_A 335271800.30 33527180.117 1235288639 405922614 33523589 33523610 1239461740 33523591#0 33523591#1 33523591#2 440087233#0 440087233#1 440087233#2 440087233#3 1081633633 372395815#1 1239461751#1 1239461751#2 1184531525#0 1184531525#1 477571851#0 477571870 477571859 477570854#0 477570855 26245639-AddedOnRampEdge lane_exit_speed_B lane_exit_B"/>
    </vehicle>
    <vehicle id="r_luz_tun_aAm_eWa_4_small_truck.0" type="small_truck" depart="17529.04">
        <route edges="lane_entry_A 335271800.30 33527180.117 1235288639 405922614 33523589 33523610 1239461740 33523591#0 33523591#1 33523591#2 440087233#0 440087233#1 440087233#2 440087233#3 1081633633 372395815#1 1239461751#1 1239461751#2 1184531525#0 1184531525#1 477571851#0 477571870 477571859 477570854#0 477570855 26245639-AddedOnRampEdge lane_exit_speed_B lane_exit_B"/>
    </vehicle>
    <vehicle id="r_luz_tun_aAm_eWa_4_car_aggr3.1" type="car_aggr3" depart="17700.51">
        <route edges="lane_entry_A 335271800.30 33527180.117 1235288639 405922614 33523589 33523610 1239461740 33523591#0 33523591#1 33523591#2 440087233#0 440087233#1 440087233#2 440087233#3 1081633633 372395815#1 1239461751#1 1239461751#2 1184531525#0 1184531525#1 477571851#0 477571870 477571859 477570854#0 477570855 26245639-AddedOnRampEdge lane_exit_speed_B lane_exit_B"/>
    </vehicle>
    <vehicle id="r_axs_tun_aEr_eWa_4_car_aggr3.0" type="car_aggr3" depart="17730.14">
        <route edges="lane_entry_A 335271800.30 33527180.117 1235288639 405922614 33523589 33523610 1239461740 33523591#0 33523591#1 33523591#2 440087233#0 440087233#1 440087233#2 440087233#3 1081633633 372395815#1 1239461751#1 1239461751#2 1184531525#0 1184531525#1 477571851#0 477571870 477571859 477570854#0 477570855 26245639-AddedOnRampEdge lane_exit_speed_B lane_exit_B"/>
    </vehicle>
    <vehicle id="r_and_alt_1_4_car_aggr4.0" type="car_aggr4" depart="18362.33">
        <route edges="lane_entry_D -34077046#3 -34077046#2 -34077046#1 -34077046#0 -1194954739 -1194954738 -883000239#4 -883000239#3 -883000239#2 -883000239#1 -883000239#0 -33521939 -838832270#1 -838832270#0 -184920626 -838832269 -1158670165#1 -1158670165#0 -1194474097#3 -1194474097#2 -1194474097#1 -1194474097#0 -1194954728 -109543871 -33521940#6 -33521940#4 -33521940#3 -33521940#2 -33521940#1 -33521940#0 -33523584#2 -33523584#1 -33523584#0 -1194474094#1 -1194474094#0 -477570853#1 -477570853#0 477570856#1 477570856#2 1184531523 1184531524#1 -477571859 477571862#0 477571882 -1239461751#2 -1239461751#1 -1239461751#0 -372395815#0 -1239461745 -440087233#2 -440087233#1 -440087233#0 -33523591#2 -33523591#1 -33523591#0 -1239461740 -33523610 -33523609 -405922614 -1235288639 -33527180 lane_exit_speed_A lane_exit_A"/>
    </vehicle>
    <vehicle id="r_luz_tun_aEr_eWa_4_car_aggr3.0" type="car_aggr3" depart="18841.83">
        <route edges="lane_entry_A 335271800.30 33527180.117 1235288639 405922614 33523589 33523610 1239461740 33523591#0 33523591#1 33523591#2 440087233#0 440087233#1 440087233#2 440087233#3 1081633633 372395815#1 1239461751#1 1239461751#2 1184531525#0 1184531525#1 477571851#0 477571870 477571859 477570854#0 477570855 26245639-AddedOnRampEdge lane_exit_speed_B lane_exit_B"/>
    </vehicle>
    <vehicle id="r_luz_tun_aEr_eWa_4_car_aggr5.0" type="car_aggr5" depart="18845.08">
        <route edges="lane_entry_A 335271800.30 33527180.117 1235288639 405922614 33523589 33523610 1239461740 33523591#0 33523591#1 33523591#2 440087233#0 440087233#1 440087233#2 440087233#3 1081633633 372395815#1 1239461751#1 1239461751#2 1184531525#0 1184531525#1 477571851#0 477571870 477571859 477570854#0 477570855 26245639-AddedOnRampEdge lane_exit_speed_B lane_exit_B"/>
    </vehicle>
    <vehicle id="r_axs_tun_aAm_eWa_4_big_truck.0" type="big_truck" depart="19225.21">
        <route edges="lane_entry_A 335271800.30 33527180.117 1235288639 405922614 33523589 33523610 1239461740 33523591#0 33523591#1 33523591#2 440087233#0 440087233#1 440087233#2 440087233#3 1081633633 372395815#1 1239461751#1 1239461751#2 1184531525#0 1184531525#1 477571851#0 477571870 477571859 477570854#0 477570855 26245639-AddedOnRampEdge lane_exit_speed_B lane_exit_B"/>
    </vehicle>
    <vehicle id="r_and_alt_1_6_car_aggr2.0" type="car_aggr2" depart="22309.42">
        <route edges="lane_entry_D -34077046#3 -34077046#2 -34077046#1 -34077046#0 -1194954739 -1194954738 -883000239#4 -883000239#3 -883000239#2 -883000239#1 -883000239#0 -33521939 -838832270#1 -838832270#0 -184920626 -838832269 -1158670165#1 -1158670165#0 -1194474097#3 -1194474097#2 -1194474097#1 -1194474097#0 -1194954728 -109543871 -33521940#6 -33521940#4 -33521940#3 -33521940#2 -33521940#1 -33521940#0 -33523584#2 -33523584#1 -33523584#0 -1194474094#1 -1194474094#0 -477570853#1 -477570853#0 477570856#1 477570856#2 1184531523 1184531524#1 -477571859 477571862#0 477571882 -1239461751#2 -1239461751#1 -1239461751#0 -372395815#0 -1239461745 -440087233#2 -440087233#1 -440087233#0 -33523591#2 -33523591#1 -33523591#0 -1239461740 -33523610 -33523609 -405922614 -1235288639 -33527180 lane_exit_speed_A lane_exit_A"/>
    </vehicle>
    <vehicle id="r_and_alt_1_6_car_aggr3.0" type="car_aggr3" depart="22553.23">
        <route edges="lane_entry_D -34077046#3 -34077046#2 -34077046#1 -34077046#0 -1194954739 -1194954738 -883000239#4 -883000239#3 -883000239#2 -883000239#1 -883000239#0 -33521939 -838832270#1 -838832270#0 -184920626 -838832269 -1158670165#1 -1158670165#0 -1194474097#3 -1194474097#2 -1194474097#1 -1194474097#0 -1194954728 -109543871 -33521940#6 -33521940#4 -33521940#3 -33521940#2 -33521940#1 -33521940#0 -33523584#2 -33523584#1 -33523584#0 -1194474094#1 -1194474094#0 -477570853#1 -477570853#0 477570856#1 477570856#2 1184531523 1184531524#1 -477571859 477571862#0 477571882 -1239461751#2 -1239461751#1 -1239461751#0 -372395815#0 -1239461745 -440087233#2 -440087233#1 -440087233#0 -33523591#2 -33523591#1 -33523591#0 -1239461740 -33523610 -33523609 -405922614 -1235288639 -33527180 lane_exit_speed_A lane_exit_A"/>
    </vehicle>
    <vehicle id="r_and_alt_1_6_car_aggr3.1" type="car_aggr3" depart="22660.09">
        <route edges="lane_entry_D -34077046#3 -34077046#2 -34077046#1 -34077046#0 -1194954739 -1194954738 -883000239#4 -883000239#3 -883000239#2 -883000239#1 -883000239#0 -33521939 -838832270#1 -838832270#0 -184920626 -838832269 -1158670165#1 -1158670165#0 -1194474097#3 -1194474097#2 -1194474097#1 -1194474097#0 -1194954728 -109543871 -33521940#6 -33521940#4 -33521940#3 -33521940#2 -33521940#1 -33521940#0 -33523584#2 -33523584#1 -33523584#0 -1194474094#1 -1194474094#0 -477570853#1 -477570853#0 477570856#1 477570856#2 1184531523 1184531524#1 -477571859 477571862#0 477571882 -1239461751#2 -1239461751#1 -1239461751#0 -372395815#0 -1239461745 -440087233#2 -440087233#1 -440087233#0 -33523591#2 -33523591#1 -33523591#0 -1239461740 -33523610 -33523609 -405922614 -1235288639 -33527180 lane_exit_speed_A lane_exit_A"/>
    </vehicle>
    <vehicle id="r_alt_and_1_6_car_aggr3.0" type="car_aggr3" depart="23238.84">
        <route edges="lane_entry_A 335271800.30 33527180.117 1235288639 405922614 33523589 33523610 1239461740 33523591#0 33523591#1 33523591#2 440087233#0 440087233#1 440087233#2 440087233#3 1081633633 372395815#1 1239461751#1 1239461751#2 1184531525#0 1184531525#1 477571851#0 477571870 477571859 477570854#0 477570854#1 1239461755#0 1239461755#1 477570859#1 477570853#0 477570853#1 1194474094#0 1194474094#1 33523584#0 33523584#1 33523584#2 33521940#0 33521940#1 33521940#2 33521940#3 33521940#4 33521940#6 109543871 1194954728 1194474097#0 1194474097#1 1194474097#2 1194474097#3 1158670165#0 1158670165#1 838832269 184920625 838832270#0 838832270#1 110709004 883000239#0 883000239#1 883000239#2 883000239#3 883000239#4 1194954738 1194954739 34077046#0 34077046#1 34077046#2 lane_exit_speed_D lane_exit_D"/>
    </vehicle>
    <vehicle id="r_and_alt_1_6_car_aggr3.2" type="car_aggr3" depart="23679.88">
        <route edges="lane_entry_D -34077046#3 -34077046#2 -34077046#1 -34077046#0 -1194954739 -1194954738 -883000239#4 -883000239#3 -883000239#2 -883000239#1 -883000239#0 -33521939 -838832270#1 -838832270#0 -184920626 -838832269 -1158670165#1 -1158670165#0 -1194474097#3 -1194474097#2 -1194474097#1 -1194474097#0 -1194954728 -109543871 -33521940#6 -33521940#4 -33521940#3 -33521940#2 -33521940#1 -33521940#0 -33523584#2 -33523584#1 -33523584#0 -1194474094#1 -1194474094#0 -477570853#1 -477570853#0 477570856#1 477570856#2 1184531523 1184531524#1 -477571859 477571862#0 477571882 -1239461751#2 -1239461751#1 -1239461751#0 -372395815#0 -1239461745 -440087233#2 -440087233#1 -440087233#0 -33523591#2 -33523591#1 -33523591#0 -1239461740 -33523610 -33523609 -405922614 -1235288639 -33527180 lane_exit_speed_A lane_exit_A"/>
    </vehicle>
    <vehicle id="r_and_alt_1_6_small_truck.0" type="small_truck" depart="24293.62">
        <route edges="lane_entry_D -34077046#3 -34077046#2 -34077046#1 -34077046#0 -1194954739 -1194954738 -883000239#4 -883000239#3 -883000239#2 -883000239#1 -883000239#0 -33521939 -838832270#1 -838832270#0 -184920626 -838832269 -1158670165#1 -1158670165#0 -1194474097#3 -1194474097#2 -1194474097#1 -1194474097#0 -1194954728 -109543871 -33521940#6 -33521940#4 -33521940#3 -33521940#2 -33521940#1 -33521940#0 -33523584#2 -33523584#1 -33523584#0 -1194474094#1 -1194474094#0 -477570853#1 -477570853#0 477570856#1 477570856#2 1184531523 1184531524#1 -477571859 477571862#0 477571882 -1239461751#2 -1239461751#1 -1239461751#0 -372395815#0 -1239461745 -440087233#2 -440087233#1 -440087233#0 -33523591#2 -33523591#1 -33523591#0 -1239461740 -33523610 -33523609 -405922614 -1235288639 -33527180 lane_exit_speed_A lane_exit_A"/>
    </vehicle>
    <vehicle id="r_alt_and_1_6_big_truck.0" type="big_truck" depart="24383.32">
        <route edges="lane_entry_A 335271800.30 33527180.117 1235288639 405922614 33523589 33523610 1239461740 33523591#0 33523591#1 33523591#2 440087233#0 440087233#1 440087233#2 440087233#3 1081633633 372395815#1 1239461751#1 1239461751#2 1184531525#0 1184531525#1 477571851#0 477571870 477571859 477570854#0 477570854#1 1239461755#0 1239461755#1 477570859#1 477570853#0 477570853#1 1194474094#0 1194474094#1 33523584#0 33523584#1 33523584#2 33521940#0 33521940#1 33521940#2 33521940#3 33521940#4 33521940#6 109543871 1194954728 1194474097#0 1194474097#1 1194474097#2 1194474097#3 1158670165#0 1158670165#1 838832269 184920625 838832270#0 838832270#1 110709004 883000239#0 883000239#1 883000239#2 883000239#3 883000239#4 1194954738 1194954739 34077046#0 34077046#1 34077046#2 lane_exit_speed_D lane_exit_D"/>
    </vehicle>
    <vehicle id="r_and_alt_1_6_car_aggr4.0" type="car_aggr4" depart="24524.84">
        <route edges="lane_entry_D -34077046#3 -34077046#2 -34077046#1 -34077046#0 -1194954739 -1194954738 -883000239#4 -883000239#3 -883000239#2 -883000239#1 -883000239#0 -33521939 -838832270#1 -838832270#0 -184920626 -838832269 -1158670165#1 -1158670165#0 -1194474097#3 -1194474097#2 -1194474097#1 -1194474097#0 -1194954728 -109543871 -33521940#6 -33521940#4 -33521940#3 -33521940#2 -33521940#1 -33521940#0 -33523584#2 -33523584#1 -33523584#0 -1194474094#1 -1194474094#0 -477570853#1 -477570853#0 477570856#1 477570856#2 1184531523 1184531524#1 -477571859 477571862#0 477571882 -1239461751#2 -1239461751#1 -1239461751#0 -372395815#0 -1239461745 -440087233#2 -440087233#1 -440087233#0 -33523591#2 -33523591#1 -33523591#0 -1239461740 -33523610 -33523609 -405922614 -1235288639 -33527180 lane_exit_speed_A lane_exit_A"/>
    </vehicle>
    <vehicle id="r_alt_and_1_6_car_aggr4.0" type="car_aggr4" depart="24586.23">
        <route edges="lane_entry_A 335271800.30 33527180.117 1235288639 405922614 33523589 33523610 1239461740 33523591#0 33523591#1 33523591#2 440087233#0 440087233#1 440087233#2 440087233#3 1081633633 372395815#1 1239461751#1 1239461751#2 1184531525#0 1184531525#1 477571851#0 477571870 477571859 477570854#0 477570854#1 1239461755#0 1239461755#1 477570859#1 477570853#0 477570853#1 1194474094#0 1194474094#1 33523584#0 33523584#1 33523584#2 33521940#0 33521940#1 33521940#2 33521940#3 33521940#4 33521940#6 109543871 1194954728 1194474097#0 1194474097#1 1194474097#2 1194474097#3 1158670165#0 1158670165#1 838832269 184920625 838832270#0 838832270#1 110709004 883000239#0 883000239#1 883000239#2 883000239#3 883000239#4 1194954738 1194954739 34077046#0 34077046#1 34077046#2 lane_exit_speed_D lane_exit_D"/>
    </vehicle>
    <vehicle id="r_alt_and_1_6_small_truck.0" type="small_truck" depart="24654.37">
        <route edges="lane_entry_A 335271800.30 33527180.117 1235288639 405922614 33523589 33523610 1239461740 33523591#0 33523591#1 33523591#2 440087233#0 440087233#1 440087233#2 440087233#3 1081633633 372395815#1 1239461751#1 1239461751#2 1184531525#0 1184531525#1 477571851#0 477571870 477571859 477570854#0 477570854#1 1239461755#0 1239461755#1 477570859#1 477570853#0 477570853#1 1194474094#0 1194474094#1 33523584#0 33523584#1 33523584#2 33521940#0 33521940#1 33521940#2 33521940#3 33521940#4 33521940#6 109543871 1194954728 1194474097#0 1194474097#1 1194474097#2 1194474097#3 1158670165#0 1158670165#1 838832269 184920625 838832270#0 838832270#1 110709004 883000239#0 883000239#1 883000239#2 883000239#3 883000239#4 1194954738 1194954739 34077046#0 34077046#1 34077046#2 lane_exit_speed_D lane_exit_D"/>
    </vehicle>
    <vehicle id="r_and_alt_1_6_car_aggr2.1" type="car_aggr2" depart="24693.52">
        <route edges="lane_entry_D -34077046#3 -34077046#2 -34077046#1 -34077046#0 -1194954739 -1194954738 -883000239#4 -883000239#3 -883000239#2 -883000239#1 -883000239#0 -33521939 -838832270#1 -838832270#0 -184920626 -838832269 -1158670165#1 -1158670165#0 -1194474097#3 -1194474097#2 -1194474097#1 -1194474097#0 -1194954728 -109543871 -33521940#6 -33521940#4 -33521940#3 -33521940#2 -33521940#1 -33521940#0 -33523584#2 -33523584#1 -33523584#0 -1194474094#1 -1194474094#0 -477570853#1 -477570853#0 477570856#1 477570856#2 1184531523 1184531524#1 -477571859 477571862#0 477571882 -1239461751#2 -1239461751#1 -1239461751#0 -372395815#0 -1239461745 -440087233#2 -440087233#1 -440087233#0 -33523591#2 -33523591#1 -33523591#0 -1239461740 -33523610 -33523609 -405922614 -1235288639 -33527180 lane_exit_speed_A lane_exit_A"/>
    </vehicle>
    <vehicle id="r_and_alt_1_6_car_aggr5.0" type="car_aggr5" depart="24931.52">
        <route edges="lane_entry_D -34077046#3 -34077046#2 -34077046#1 -34077046#0 -1194954739 -1194954738 -883000239#4 -883000239#3 -883000239#2 -883000239#1 -883000239#0 -33521939 -838832270#1 -838832270#0 -184920626 -838832269 -1158670165#1 -1158670165#0 -1194474097#3 -1194474097#2 -1194474097#1 -1194474097#0 -1194954728 -109543871 -33521940#6 -33521940#4 -33521940#3 -33521940#2 -33521940#1 -33521940#0 -33523584#2 -33523584#1 -33523584#0 -1194474094#1 -1194474094#0 -477570853#1 -477570853#0 477570856#1 477570856#2 1184531523 1184531524#1 -477571859 477571862#0 477571882 -1239461751#2 -1239461751#1 -1239461751#0 -372395815#0 -1239461745 -440087233#2 -440087233#1 -440087233#0 -33523591#2 -33523591#1 -33523591#0 -1239461740 -33523610 -33523609 -405922614 -1235288639 -33527180 lane_exit_speed_A lane_exit_A"/>
    </vehicle>
    <vehicle id="r_alt_and_1_6_car_aggr3.1" type="car_aggr3" depart="25797.52">