<?xml version="1.0" encoding="UTF-8"?>

<!-- generated on 2025-05-20 13:46:27 by Eclipse SUMO duarouter Version 1.22.0
<duarouterConfiguration xmlns:xsi="http://www.w3.org/2001/XMLSchema-instance" xsi:noNamespaceSchemaLocation="http://sumo.dlr.de/xsd/duarouterConfiguration.xsd">

    <input>
        <net-file value="../simulation/villages/Silenen/silenen_osm.net.xml"/>
        <additional-files value="data/vehicle_types_new.xml"/>
        <route-files value="output/reconstructed_trips_silenen.trips.xml"/>
    </input>

    <output>
        <output-file value="output/20_11_routes_silenen.rou.xml"/>
    </output>

</duarouterConfiguration>
-->

<routes xmlns:xsi="http://www.w3.org/2001/XMLSchema-instance" xsi:noNamespaceSchemaLocation="http://sumo.dlr.de/xsd/routes_file.xsd">
    <vType id="car_aggr4" maxSpeed="40.00" speedFactor="normc(0.95,0.12,0.20,2.00)" vClass="passenger" impatience="3.50" minGapLat="0.40" lcStrategic="15" lcCooperative="0.1" lcSpeedGain="10.0" lcKeepRight="0.2" lcSublane="5.0" lcPushy="2.6" lcPushyGap="0.2" lcAssertive="4.2" lcImpatience="2.5" lcTimeToImpatience="6" lcSigma="1.0" accel="2.8" decel="6.0" tau="3.0">
        <param key="laneChangeModel" value="SL2015"/>
    </vType>
    <vehicle id="r_axs_tun_aEr_eGo_1_car_aggr4.0" type="car_aggr4" depart="4828.67">
        <route edges="lane_entry_A 4214427#0.27.24 4214427#0.27.43 4214427#1 1233790711 738798587#0 738798587#1 738798589#1 738798589#2 378131054#2 378131054#3 837546190#1 837546202#1 837546202#2 837546202#3 837546202#4 110431158 110431139#0 110431139#1 110431139#2 1081667875#1 738718556#0 738718556#1 738718556#2 738718556#3 1155226165 8135465#0 8135465#1 8135465#2 8135465#3 8135465#4 8135465#5 184904444 1233796574#0 1233796574#1 184904443#1 184904443#2 48875753 1155226217 136646900 48875760#1 802701450 136646905 -34077067#5 -34077067#4 802701454 34077071 -839691515#0 -34077067#0 -1068849496 1234022738#1 1234022735#0 lane_exit_speed_C lane_exit_C"/>
    </vehicle>
    <vType id="car_aggr3" maxSpeed="40.00" speedFactor="normc(0.90,0.10,0.20,2.00)" vClass="passenger" impatience="3.00" minGapLat="0.50" lcStrategic="25" lcCooperative="0.2" lcSpeedGain="9.0" lcKeepRight="0.3" lcSublane="4.0" lcPushy="2.2" lcPushyGap="0.3" lcAssertive="3.5" lcImpatience="2.0" lcTimeToImpatience="9" lcSigma="0.8" accel="2.5" decel="5.0" tau="3.5">
        <param key="laneChangeModel" value="SL2015"/>
    </vType>
    <vehicle id="r_luz_tun_aAm_eGo_1_car_aggr3.0" type="car_aggr3" depart="7045.99">
        <route edges="lane_entry_B 1194467330.33 26245501#0 1081642028 -34077067#4 802701454 34077071 -839691515#0 -34077067#0 -1068849496 1234022738#1 1234022735#0 lane_exit_speed_C lane_exit_C"/>
    </vehicle>
    <vType id="big_truck" length="12.00" maxSpeed="22.00" speedFactor="normc(0.75,0.04,0.20,2.00)" vClass="truck" impatience="1.80" minGapLat="0.80" lcStrategic="200" lcCooperative="0.1" lcSpeedGain="4.0" lcKeepRight="0.8" lcSublane="1.5" lcPushy="1.2" lcPushyGap="0.3" lcAssertive="2.5" lcImpatience="1.5" lcTimeToImpatience="10" lcSigma="0.4" accel="1.4" decel="3.2" tau="3.5">
        <param key="laneChangeModel" value="SL2015"/>
    </vType>
    <vehicle id="r_luz_tun_aAm_eGo_1_big_truck.0" type="big_truck" depart="7112.76">
        <route edges="lane_entry_B 1194467330.33 26245501#0 1081642028 -34077067#4 802701454 34077071 -839691515#0 -34077067#0 -1068849496 1234022738#1 1234022735#0 lane_exit_speed_C lane_exit_C"/>
    </vehicle>
    <vehicle id="r_luz_tun_aEr_eAm_1_car_aggr4.0" type="car_aggr4" depart="7413.87">
        <route edges="lane_entry_A 4214427#0.27.24 4214427#0.27.43 4214427#1 1233790711 738798587#0 738798587#1 738798589#1 738798589#2 378131054#2 378131054#3 837546190#1 837546202#1 837546202#2 837546202#3 837546202#4 110431158 110431139#0 110431139#1 110431139#2 1081667875#1 738718556#0 738718556#1 738718556#2 738718556#3 1155226165 8135465#0 8135465#1 8135465#2 8135465#3 8135465#4 8135465#5 184904444 1233796574#0 1233796574#1 184904443#1 184904443#2 48875753 1155226217 136646900 48875760#1 802701450 136646905 43202568 lane_exit_speed_B lane_exit_B"/>
    </vehicle>
    <vehicle id="r_luz_tun_aEr_eAm_1_car_aggr3.1" type="car_aggr3" depart="7478.40">
        <route edges="lane_entry_A 4214427#0.27.24 4214427#0.27.43 4214427#1 1233790711 738798587#0 738798587#1 738798589#1 738798589#2 378131054#2 378131054#3 837546190#1 837546202#1 837546202#2 837546202#3 837546202#4 110431158 110431139#0 110431139#1 110431139#2 1081667875#1 738718556#0 738718556#1 738718556#2 738718556#3 1155226165 8135465#0 8135465#1 8135465#2 8135465#3 8135465#4 8135465#5 184904444 1233796574#0 1233796574#1 184904443#1 184904443#2 48875753 1155226217 136646900 48875760#1 802701450 136646905 43202568 lane_exit_speed_B lane_exit_B"/>
    </vehicle>
    <vehicle id="r_luz_tun_aEr_eAm_1_car_aggr3.0" type="car_aggr3" depart="7621.58">
        <route edges="lane_entry_A 4214427#0.27.24 4214427#0.27.43 4214427#1 1233790711 738798587#0 738798587#1 738798589#1 738798589#2 378131054#2 378131054#3 837546190#1 837546202#1 837546202#2 837546202#3 837546202#4 110431158 110431139#0 110431139#1 110431139#2 1081667875#1 738718556#0 738718556#1 738718556#2 738718556#3 1155226165 8135465#0 8135465#1 8135465#2 8135465#3 8135465#4 8135465#5 184904444 1233796574#0 1233796574#1 184904443#1 184904443#2 48875753 1155226217 136646900 48875760#1 802701450 136646905 43202568 lane_exit_speed_B lane_exit_B"/>
    </vehicle>
    <vehicle id="r_axs_tun_aEr_eGo_1_car_aggr3.0" type="car_aggr3" depart="7983.66">
        <route edges="lane_entry_A 4214427#0.27.24 4214427#0.27.43 4214427#1 1233790711 738798587#0 738798587#1 738798589#1 738798589#2 378131054#2 378131054#3 837546190#1 837546202#1 837546202#2 837546202#3 837546202#4 110431158 110431139#0 110431139#1 110431139#2 1081667875#1 738718556#0 738718556#1 738718556#2 738718556#3 1155226165 8135465#0 8135465#1 8135465#2 8135465#3 8135465#4 8135465#5 184904444 1233796574#0 1233796574#1 184904443#1 184904443#2 48875753 1155226217 136646900 48875760#1 802701450 136646905 -34077067#5 -34077067#4 802701454 34077071 -839691515#0 -34077067#0 -1068849496 1234022738#1 1234022735#0 lane_exit_speed_C lane_exit_C"/>
    </vehicle>
    <vType id="small_truck" length="6.50" maxSpeed="28.00" speedFactor="normc(0.85,0.05,0.20,2.00)" vClass="delivery" impatience="2.50" minGapLat="0.60" lcStrategic="35" lcCooperative="0.3" lcSpeedGain="6.0" lcKeepRight="0.4" lcSublane="2.0" lcPushy="1.8" lcPushyGap="0.4" lcAssertive="2.5" lcImpatience="1.8" lcTimeToImpatience="10" lcSigma="0.5" accel="2.2" decel="4.0" tau="2.8">
        <param key="laneChangeModel" value="SL2015"/>
    </vType>
    <vehicle id="r_axs_tun_aEr_eGo_1_small_truck.0" type="small_truck" depart="8145.36">
        <route edges="lane_entry_A 4214427#0.27.24 4214427#0.27.43 4214427#1 1233790711 738798587#0 738798587#1 738798589#1 738798589#2 378131054#2 378131054#3 837546190#1 837546202#1 837546202#2 837546202#3 837546202#4 110431158 110431139#0 110431139#1 110431139#2 1081667875#1 738718556#0 738718556#1 738718556#2 738718556#3 1155226165 8135465#0 8135465#1 8135465#2 8135465#3 8135465#4 8135465#5 184904444 1233796574#0 1233796574#1 184904443#1 184904443#2 48875753 1155226217 136646900 48875760#1 802701450 136646905 -34077067#5 -34077067#4 802701454 34077071 -839691515#0 -34077067#0 -1068849496 1234022738#1 1234022735#0 lane_exit_speed_C lane_exit_C"/>
    </vehicle>
    <vehicle id="r_and_alt_1_2_car_aggr4.0" type="car_aggr4" depart="9847.31">
        <route edges="lane_entry_C -1234022735#0 -1234022735#01 -1234022738#1 1068849496 34077067#0 34077067#1 34077067#2 34077067#4 34077067#5 -136646905 -802701450 -48875760#1 -48875760#0 -1155226217 -48875753 -184904443#2 -184904443#1 -1233796574#1 -1233796574#0 -1155226185 -738718554#0 -8135465#4 -8135465#3 -8135465#2 -8135465#1 -8135465#0 -1155226165 -1029849448 -738718556#2 -738718556#1 -738718556#0 -1081667875#1 -1081667875#0 -110431139#1 -110431139#0 -110431158 -837546202#4 -837546202#3 -837546202#2 -837546202#1 -837546202#0 -378131054#3 -378131054#2 -378131054#0 -738798589#1 -738798589#0 -738798587#0 -1233790711 -4214427#1 -4214427#0 -4214427#0.27.24 lane_exit_A"/>
    </vehicle>
    <vType id="car_aggr5" maxSpeed="45.00" speedFactor="normc(1.00,0.15,0.20,2.00)" vClass="passenger" impatience="4.00" minGapLat="0.30" lcStrategic="5" lcCooperative="0.0" lcSpeedGain="11.0" lcKeepRight="0.0" lcSublane="6.0" lcPushy="3.0" lcPushyGap="0.1" lcAssertive="5.0" lcImpatience="3.0" lcTimeToImpatience="3" lcSigma="1.2" accel="3.0" decel="8.0" tau="2.5">
        <param key="laneChangeModel" value="SL2015"/>
    </vType>
    <vehicle id="r_axs_tun_aEr_eWa_2_car_aggr5.0" type="car_aggr5" depart="11209.80">
        <route edges="lane_entry_A 4214427#0.27.24 4214427#0.27.43 4214427#1 1233790711 738798587#0 738798587#1 738798589#1 738798589#2 378131054#2 378131054#3 837546190#1 837546202#1 837546202#2 837546202#3 837546202#4 110431158 110431139#0 110431139#1 110431139#2 1081667875#1 738718556#0 738718556#1 738718556#2 738718556#3 1155226165 8135465#0 8135465#1 8135465#2 8135465#3 8135465#4 8135465#5 184904444 1233796574#0 1233796574#1 184904443#1 184904443#2 48875753 1155226217 136646900 48875760#1 802701450 136646905 -34077067#5 -34077067#4 802701454 34077071 -839691515#0 -34077067#0 -1068849496 1234022738#1 1234022735#0 lane_exit_speed_C lane_exit_C"/>
    </vehicle>
    <vehicle id="r_ams_ers_1_3_big_truck.0" type="big_truck" depart="12568.19">
        <route edges="lane_entry_C -1234022735#0 -1234022735#01 -1234022738#1 1068849496 34077067#0 34077067#1 34077067#2 34077067#4 34077067#5 -136646905 -802701450 -48875760#1 -48875760#0 -1155226217 -48875753 -184904443#2 -184904443#1 -1233796574#1 -1233796574#0 -1155226185 -738718554#0 -8135465#4 -8135465#3 -8135465#2 -8135465#1 -8135465#0 -1155226165 -1029849448 -738718556#2 -738718556#1 -738718556#0 -1081667875#1 -1081667875#0 -110431139#1 -110431139#0 -110431158 -837546202#4 -837546202#3 -837546202#2 -837546202#1 -837546202#0 -378131054#3 -378131054#2 -378131054#0 -738798589#1 -738798589#0 -738798587#0 -1233790711 -4214427#1 -4214427#0 -4214427#0.27.24 lane_exit_A"/>
    </vehicle>
    <vehicle id="r_luz_tun_aEr_eAm_3_car_aggr5.0" type="car_aggr5" depart="12806.93">
        <route edges="lane_entry_A 4214427#0.27.24 4214427#0.27.43 4214427#1 1233790711 738798587#0 738798587#1 738798589#1 738798589#2 378131054#2 378131054#3 837546190#1 837546202#1 837546202#2 837546202#3 837546202#4 110431158 110431139#0 110431139#1 110431139#2 1081667875#1 738718556#0 738718556#1 738718556#2 738718556#3 1155226165 8135465#0 8135465#1 8135465#2 8135465#3 8135465#4 8135465#5 184904444 1233796574#0 1233796574#1 184904443#1 184904443#2 48875753 1155226217 136646900 48875760#1 802701450 136646905 43202568 lane_exit_speed_B lane_exit_B"/>
    </vehicle>
    <vType id="car_aggr2" maxSpeed="35.00" speedFactor="normc(0.85,0.09,0.20,2.00)" vClass="passenger" impatience="2.50" minGapLat="0.60" lcStrategic="40" lcCooperative="0.3" lcSpeedGain="8.0" lcKeepRight="0.5" lcSublane="3.0" lcPushy="1.8" lcPushyGap="0.4" lcAssertive="2.8" lcImpatience="1.5" lcTimeToImpatience="12" lcSigma="0.6" accel="2.2" decel="4.0" tau="4.5">
        <param key="laneChangeModel" value="SL2015"/>
    </vType>
    <vehicle id="r_tun_axs_KS_____3_car_aggr2.0" type="car_aggr2" depart="13437.07">
        <route edges="lane_entry_C -1234022735#0 -1234022735#01 -1234022738#1 1068849496 34077067#0 34077067#1 34077067#2 34077067#4 34077067#5 -136646905 -802701450 -48875760#1 -48875760#0 -1155226217 -48875753 -184904443#2 -184904443#1 -1233796574#1 -1233796574#0 -1155226185 -738718554#0 -8135465#4 -8135465#3 -8135465#2 -8135465#1 -8135465#0 -1155226165 -1029849448 -738718556#2 -738718556#1 -738718556#0 -1081667875#1 -1081667875#0 -110431139#1 -110431139#0 -110431158 -837546202#4 -837546202#3 -837546202#2 -837546202#1 -837546202#0 -378131054#3 -378131054#2 -378131054#0 -738798589#1 -738798589#0 -738798587#0 -1233790711 -4214427#1 -4214427#0 -4214427#0.27.24 lane_exit_A"/>
    </vehicle>
    <vehicle id="r_tun_axs_KS_____3_car_aggr3.0" type="car_aggr3" depart="13915.94">
        <route edges="lane_entry_C -1234022735#0 -1234022735#01 -1234022738#1 1068849496 34077067#0 34077067#1 34077067#2 34077067#4 34077067#5 -136646905 -802701450 -48875760#1 -48875760#0 -1155226217 -48875753 -184904443#2 -184904443#1 -1233796574#1 -1233796574#0 -1155226185 -738718554#0 -8135465#4 -8135465#3 -8135465#2 -8135465#1 -8135465#0 -1155226165 -1029849448 -738718556#2 -738718556#1 -738718556#0 -1081667875#1 -1081667875#0 -110431139#1 -110431139#0 -110431158 -837546202#4 -837546202#3 -837546202#2 -837546202#1 -837546202#0 -378131054#3 -378131054#2 -378131054#0 -738798589#1 -738798589#0 -738798587#0 -1233790711 -4214427#1 -4214427#0 -4214427#0.27.24 lane_exit_A"/>
    </vehicle>
    <vehicle id="r_tun_axs_KS_____3_car_aggr3.1" type="car_aggr3" depart="14642.04">
        <route edges="lane_entry_C -1234022735#0 -1234022735#01 -1234022738#1 1068849496 34077067#0 34077067#1 34077067#2 34077067#4 34077067#5 -136646905 -802701450 -48875760#1 -48875760#0 -1155226217 -48875753 -184904443#2 -184904443#1 -1233796574#1 -1233796574#0 -1155226185 -738718554#0 -8135465#4 -8135465#3 -8135465#2 -8135465#1 -8135465#0 -1155226165 -1029849448 -738718556#2 -738718556#1 -738718556#0 -1081667875#1 -1081667875#0 -110431139#1 -110431139#0 -110431158 -837546202#4 -837546202#3 -837546202#2 -837546202#1 -837546202#0 -378131054#3 -378131054#2 -378131054#0 -738798589#1 -738798589#0 -738798587#0 -1233790711 -4214427#1 -4214427#0 -4214427#0.27.24 lane_exit_A"/>
    </vehicle>
    <vehicle id="r_tun_axs_KS_____3_car_aggr3.2" type="car_aggr3" depart="14907.34">
        <route edges="lane_entry_C -1234022735#0 -1234022735#01 -1234022738#1 1068849496 34077067#0 34077067#1 34077067#2 34077067#4 34077067#5 -136646905 -802701450 -48875760#1 -48875760#0 -1155226217 -48875753 -184904443#2 -184904443#1 -1233796574#1 -1233796574#0 -1155226185 -738718554#0 -8135465#4 -8135465#3 -8135465#2 -8135465#1 -8135465#0 -1155226165 -1029849448 -738718556#2 -738718556#1 -738718556#0 -1081667875#1 -1081667875#0 -110431139#1 -110431139#0 -110431158 -837546202#4 -837546202#3 -837546202#2 -837546202#1 -837546202#0 -378131054#3 -378131054#2 -378131054#0 -738798589#1 -738798589#0 -738798587#0 -1233790711 -4214427#1 -4214427#0 -4214427#0.27.24 lane_exit_A"/>
    </vehicle>
    <vehicle id="r_ams_ers_1_4_car_aggr2.0" type="car_aggr2" depart="15348.55">
        <route edges="lane_entry_C -1234022735#0 -1234022735#01 -1234022738#1 1068849496 34077067#0 34077067#1 34077067#2 34077067#4 34077067#5 -136646905 -802701450 -48875760#1 -48875760#0 -1155226217 -48875753 -184904443#2 -184904443#1 -1233796574#1 -1233796574#0 -1155226185 -738718554#0 -8135465#4 -8135465#3 -8135465#2 -8135465#1 -8135465#0 -1155226165 -1029849448 -738718556#2 -738718556#1 -738718556#0 -1081667875#1 -1081667875#0 -110431139#1 -110431139#0 -110431158 -837546202#4 -837546202#3 -837546202#2 -837546202#1 -837546202#0 -378131054#3 -378131054#2 -378131054#0 -738798589#1 -738798589#0 -738798587#0 -1233790711 -4214427#1 -4214427#0 -4214427#0.27.24 lane_exit_A"/>
    </vehicle>
    <vType id="car_aggr1" maxSpeed="35.00" speedFactor="normc(0.80,0.08,0.20,2.00)" vClass="passenger" impatience="2.00" minGapLat="0.80" lcStrategic="60" lcCooperative="0.5" lcSpeedGain="7.0" lcKeepRight="0.6" lcSublane="2.0" lcPushy="1.2" lcPushyGap="0.5" lcAssertive="2.0" lcImpatience="1.0" lcTimeToImpatience="15" lcSigma="0.4" accel="1.8" decel="3.0" tau="5.0">
        <param key="laneChangeModel" value="SL2015"/>
    </vType>
    <vehicle id="r_luz_tun_aEr_eAm_4_car_aggr1.0" type="car_aggr1" depart="16038.77">
        <route edges="lane_entry_A 4214427#0.27.24 4214427#0.27.43 4214427#1 1233790711 738798587#0 738798587#1 738798589#1 738798589#2 378131054#2 378131054#3 837546190#1 837546202#1 837546202#2 837546202#3 837546202#4 110431158 110431139#0 110431139#1 110431139#2 1081667875#1 738718556#0 738718556#1 738718556#2 738718556#3 1155226165 8135465#0 8135465#1 8135465#2 8135465#3 8135465#4 8135465#5 184904444 1233796574#0 1233796574#1 184904443#1 184904443#2 48875753 1155226217 136646900 48875760#1 802701450 136646905 43202568 lane_exit_speed_B lane_exit_B"/>
    </vehicle>
    <vehicle id="r_ams_ers_1_4_car_aggr2.1" type="car_aggr2" depart="16119.97">
        <route edges="lane_entry_C -1234022735#0 -1234022735#01 -1234022738#1 1068849496 34077067#0 34077067#1 34077067#2 34077067#4 34077067#5 -136646905 -802701450 -48875760#1 -48875760#0 -1155226217 -48875753 -184904443#2 -184904443#1 -1233796574#1 -1233796574#0 -1155226185 -738718554#0 -8135465#4 -8135465#3 -8135465#2 -8135465#1 -8135465#0 -1155226165 -1029849448 -738718556#2 -738718556#1 -738718556#0 -1081667875#1 -1081667875#0 -110431139#1 -110431139#0 -110431158 -837546202#4 -837546202#3 -837546202#2 -837546202#1 -837546202#0 -378131054#3 -378131054#2 -378131054#0 -738798589#1 -738798589#0 -738798587#0 -1233790711 -4214427#1 -4214427#0 -4214427#0.27.24 lane_exit_A"/>
    </vehicle>
    <vehicle id="r_luz_tun_aAm_eWa_4_car_aggr4.0" type="car_aggr4" depart="16292.93">
        <route edges="lane_entry_B 1194467330.33 26245501#0 26245501#1 -34077067#5 -34077067#4 802701454 34077071 -839691515#0 -34077067#0 -1068849496 1234022738#1 1234022735#0 lane_exit_speed_C lane_exit_C"/>
    </vehicle>
    <vehicle id="r_luz_tun_aAm_eWa_4_car_aggr3.0" type="car_aggr3" depart="16833.17">
        <route edges="lane_entry_B 1194467330.33 26245501#0 1081642028 -34077067#4 802701454 34077071 -839691515#0 -34077067#0 -1068849496 1234022738#1 1234022735#0 lane_exit_speed_C lane_exit_C"/>
    </vehicle>
    <vehicle id="r_axs_tun_aEr_eWa_4_car_aggr3.0" type="car_aggr3" depart="16876.01">
        <route edges="lane_entry_A 4214427#0.27.24 4214427#0.27.43 4214427#1 1233790711 738798587#0 738798587#1 738798589#1 738798589#2 378131054#2 378131054#3 837546190#1 837546202#1 837546202#2 837546202#3 837546202#4 110431158 110431139#0 110431139#1 110431139#2 1081667875#1 738718556#0 738718556#1 738718556#2 738718556#3 1155226165 8135465#0 8135465#1 8135465#2 8135465#3 8135465#4 8135465#5 184904444 1233796574#0 1233796574#1 184904443#1 184904443#2 48875753 1155226217 136646900 48875760#1 802701450 136646905 -34077067#5 -34077067#4 802701454 34077071 -839691515#0 -34077067#0 -1068849496 1234022738#1 1234022735#0 lane_exit_speed_C lane_exit_C"/>
    </vehicle>
    <vehicle id="r_luz_tun_aAm_eWa_4_small_truck.0" type="small_truck" depart="16946.08">
        <route edges="lane_entry_B 1194467330.33 26245501#0 1081642028 -34077067#4 802701454 34077071 -839691515#0 -34077067#0 -1068849496 1234022738#1 1234022735#0 lane_exit_speed_C lane_exit_C"/>
    </vehicle>
    <vehicle id="r_luz_tun_aAm_eWa_4_car_aggr3.1" type="car_aggr3" depart="17103.85">
        <route edges="lane_entry_B 1194467330.33 26245501#0 1081642028 -34077067#4 802701454 34077071 -839691515#0 -34077067#0 -1068849496 1234022738#1 1234022735#0 lane_exit_speed_C lane_exit_C"/>
    </vehicle>
    <vehicle id="r_and_alt_1_4_car_aggr3.0" type="car_aggr3" depart="17467.31">
        <route edges="lane_entry_C -1234022735#0 -1234022735#01 -1234022738#1 1068849496 34077067#0 34077067#1 34077067#2 34077067#4 34077067#5 -136646905 -802701450 -48875760#1 -48875760#0 -1155226217 -48875753 -184904443#2 -184904443#1 -1233796574#1 -1233796574#0 -1155226185 -738718554#0 -8135465#4 -8135465#3 -8135465#2 -8135465#1 -8135465#0 -1155226165 -1029849448 -738718556#2 -738718556#1 -738718556#0 -1081667875#1 -1081667875#0 -110431139#1 -110431139#0 -110431158 -837546202#4 -837546202#3 -837546202#2 -837546202#1 -837546202#0 -378131054#3 -378131054#2 -378131054#0 -738798589#1 -738798589#0 -738798587#0 -1233790711 -4214427#1 -4214427#0 -4214427#0.27.24 lane_exit_A"/>
    </vehicle>
    <vehicle id="r_luz_tun_aEr_eWa_4_car_aggr3.0" type="car_aggr3" depart="18003.92">
        <route edges="lane_entry_A 4214427#0.27.24 4214427#0.27.43 4214427#1 1233790711 738798587#0 738798587#1 738798589#1 738798589#2 378131054#2 378131054#3 837546190#1 837546202#1 837546202#2 837546202#3 837546202#4 110431158 110431139#0 110431139#1 110431139#2 1081667875#1 738718556#0 738718556#1 738718556#2 738718556#3 1155226165 8135465#0 8135465#1 8135465#2 8135465#3 8135465#4 8135465#5 184904444 1233796574#0 1233796574#1 184904443#1 184904443#2 48875753 1155226217 136646900 48875760#1 802701450 136646905 -34077067#5 -34077067#4 802701454 34077071 -839691515#0 -34077067#0 -1068849496 1234022738#1 1234022735#0 lane_exit_speed_C lane_exit_C"/>
    </vehicle>
    <vehicle id="r_luz_tun_aEr_eWa_4_car_aggr5.0" type="car_aggr5" depart="18041.07">
        <route edges="lane_entry_A 4214427#0.27.24 4214427#0.27.43 4214427#1 1233790711 738798587#0 738798587#1 738798589#1 738798589#2 378131054#2 378131054#3 837546190#1 837546202#1 837546202#2 837546202#3 837546202#4 110431158 110431139#0 110431139#1 110431139#2 1081667875#1 738718556#0 738718556#1 738718556#2 738718556#3 1155226165 8135465#0 8135465#1 8135465#2 8135465#3 8135465#4 8135465#5 184904444 1233796574#0 1233796574#1 184904443#1 184904443#2 48875753 1155226217 136646900 48875760#1 802701450 136646905 -34077067#5 -34077067#4 802701454 34077071 -839691515#0 -34077067#0 -1068849496 1234022738#1 1234022735#0 lane_exit_speed_C lane_exit_C"/>
    </vehicle>
    <vehicle id="r_axs_tun_aAm_eWa_4_big_truck.0" type="big_truck" depart="18537.19">
        <route edges="lane_entry_B 1194467330.33 26245501#0 1081642028 -34077067#4 802701454 34077071 -839691515#0 -34077067#0 -1068849496 1234022738#1 1234022735#0 lane_exit_speed_C lane_exit_C"/>
    </vehicle>
    <vehicle id="r_and_alt_1_4_car_aggr4.0" type="car_aggr4" depart="19085.66">
        <route edges="lane_entry_C -1234022735#0 -1234022735#01 -1234022738#1 1068849496 34077067#0 34077067#1 34077067#2 34077067#4 34077067#5 -136646905 -802701450 -48875760#1 -48875760#0 -1155226217 -48875753 -184904443#2 -184904443#1 -1233796574#1 -1233796574#0 -1155226185 -738718554#0 -8135465#4 -8135465#3 -8135465#2 -8135465#1 -8135465#0 -1155226165 -1029849448 -738718556#2 -738718556#1 -738718556#0 -1081667875#1 -1081667875#0 -110431139#1 -110431139#0 -110431158 -837546202#4 -837546202#3 -837546202#2 -837546202#1 -837546202#0 -378131054#3 -378131054#2 -378131054#0 -738798589#1 -738798589#0 -738798587#0 -1233790711 -4214427#1 -4214427#0 -4214427#0.27.24 lane_exit_A"/>
    </vehicle>
    <vehicle id="r_axs_tun_aEr_eAm_5_small_truck.0" type="small_truck" depart="19917.51">
        <route edges="lane_entry_A 4214427#0.27.24 4214427#0.27.43 4214427#1 1233790711 738798587#0 738798587#1 738798589#1 738798589#2 378131054#2 378131054#3 837546190#1 837546202#1 837546202#2 837546202#3 837546202#4 110431158 110431139#0 110431139#1 110431139#2 1081667875#1 738718556#0 738718556#1 738718556#2 738718556#3 1155226165 8135465#0 8135465#1 8135465#2 8135465#3 8135465#4 8135465#5 184904444 1233796574#0 1233796574#1 184904443#1 184904443#2 48875753 1155226217 136646900 48875760#1 802701450 136646905 43202568 lane_exit_speed_B lane_exit_B"/>
    </vehicle>
    <vehicle id="r_luz_tun_aEr_eAm_5_car_aggr1.0" type="car_aggr1" depart="20312.89">
        <route edges="lane_entry_A 4214427#0.27.24 4214427#0.27.43 4214427#1 1233790711 738798587#0 738798587#1 738798589#1 738798589#2 378131054#2 378131054#3 837546190#1 837546202#1 837546202#2 837546202#3 837546202#4 110431158 110431139#0 110431139#1 110431139#2 1081667875#1 738718556#0 738718556#1 738718556#2 738718556#3 1155226165 8135465#0 8135465#1 8135465#2 8135465#3 8135465#4 8135465#5 184904444 1233796574#0 1233796574#1 184904443#1 184904443#2 48875753 1155226217 136646900 48875760#1 802701450 136646905 43202568 lane_exit_speed_B lane_exit_B"/>
    </vehicle>
    <vehicle id="r_axs_tun_aEr_eAm_5_car_aggr2.0" type="car_aggr2" depart="20456.16">
        <route edges="lane_entry_A 4214427#0.27.24 4214427#0.27.43 4214427#1 1233790711 738798587#0 738798587#1 738798589#1 738798589#2 378131054#2 378131054#3 837546190#1 837546202#1 837546202#2 837546202#3 837546202#4 110431158 110431139#0 110431139#1 110431139#2 1081667875#1 738718556#0 738718556#1 738718556#2 738718556#3 1155226165 8135465#0 8135465#1 8135465#2 8135465#3 8135465#4 8135465#5 184904444 1233796574#0 1233796574#1 184904443#1 184904443#2 48875753 1155226217 136646900 48875760#1 802701450 136646905 43202568 lane_exit_speed_B lane_exit_B"/>
    </vehicle>
    <vehicle id="r_axs_tun_aEr_eAm_5_big_truck.0" type="big_truck" depart="21035.95">
        <route edges="lane_entry_A 4214427#0.27.24 4214427#0.27.43 4214427#1 1233790711 738798587#0 738798587#1 738798589#1 738798589#2 378131054#2 378131054#3 837546190#1 837546202#1 837546202#2 837546202#3 837546202#4 110431158 110431139#0 110431139#1 110431139#2 1081667875#1 738718556#0 738718556#1 738718556#2 738718556#3 1155226165 8135465#0 8135465#1 8135465#2 8135465#3 8135465#4 8135465#5 184904444 1233796574#0 1233796574#1 184904443#1 184904443#2 48875753 1155226217 136646900 48875760#1 802701450 136646905 43202568 lane_exit_speed_B lane_exit_B"/>
    </vehicle>
    <vehicle id="r_axs_tun_aEr_eAm_5_car_aggr1.0" type="car_aggr1" depart="21644.37">
        <route edges="lane_entry_A 4214427#0.27.24 4214427#0.27.43 4214427#1 1233790711 738798587#0 738798587#1 738798589#1 738798589#2 378131054#2 378131054#3 837546190#1 837546202#1 837546202#2 837546202#3 837546202#4 110431158 110431139#0 110431139#1 110431139#2 1081667875#1 738718556#0 738718556#1 738718556#2 738718556#3 1155226165 8135465#0 8135465#1 8135465#2 8135465#3 8135465#4 8135465#5 184904444 1233796574#0 1233796574#1 184904443#1 184904443#2 48875753 1155226217 136646900 48875760#1 802701450 136646905 43202568 lane_exit_speed_B lane_exit_B"/>
    </vehicle>
    <vehicle id="r_ams_ers_1_6_car_aggr5.0" type="car_aggr5" depart="21673.63">
        <route edges="lane_entry_C -1234022735#0 -1234022735#01 -1234022738#1 1068849496 34077067#0 34077067#1 34077067#2 34077067#4 34077067#5 -136646905 -802701450 -48875760#1 -48875760#0 -1155226217 -48875753 -184904443#2 -184904443#1 -1233796574#1 -1233796574#0 -1155226185 -738718554#0 -8135465#4 -8135465#3 -8135465#2 -8135465#1 -8135465#0 -1155226165 -1029849448 -738718556#2 -738718556#1 -738718556#0 -1081667875#1 -1081667875#0 -110431139#1 -110431139#0 -110431158 -837546202#4 -837546202#3 -837546202#2 -837546202#1 -837546202#0 -378131054#3 -378131054#2 -378131054#0 -738798589#1 -738798589#0 -738798587#0 -1233790711 -4214427#1 -4214427#0 -4214427#0.27.24 lane_exit_A"/>
    </vehicle>
    <vehicle id="r_ams_ers_1_6_car_aggr3.0" type="car_aggr3" depart="21739.46">
        <route edges="lane_entry_C -1234022735#0 -1234022735#01 -1234022738#1 1068849496 34077067#0 34077067#1 34077067#2 34077067#4 34077067#5 -136646905 -802701450 -48875760#1 -48875760#0 -1155226217 -48875753 -184904443#2 -184904443#1 -1233796574#1 -1233796574#0 -1155226185 -738718554#0 -8135465#4 -8135465#3 -8135465#2 -8135465#1 -8135465#0 -1155226165 -1029849448 -738718556#2 -738718556#1 -738718556#0 -1081667875#1 -1081667875#0 -110431139#1 -110431139#0 -110431158 -837546202#4 -837546202#3 -837546202#2 -837546202#1 -837546202#0 -378131054#3 -378131054#2 -378131054#0 -738798589#1 -738798589#0 -738798587#0 -1233790711 -4214427#1 -4214427#0 -4214427#0.27.24 lane_exit_A"/>
    </vehicle>
    <vehicle id="r_ams_ers_1_6_car_aggr2.0" type="car_aggr2" depart="21842.06">
        <route edges="lane_entry_C -1234022735#0 -1234022735#01 -1234022738#1 1068849496 34077067#0 34077067#1 34077067#2 34077067#4 34077067#5 -136646905 -802701450 -48875760#1 -48875760#0 -1155226217 -48875753 -184904443#2 -184904443#1 -1233796574#1 -1233796574#0 -1155226185 -738718554#0 -8135465#4 -8135465#3 -8135465#2 -8135465#1 -8135465#0 -1155226165 -1029849448 -738718556#2 -738718556#1 -738718556#0 -1081667875#1 -1081667875#0 -110431139#1 -110431139#0 -110431158 -837546202#4 -837546202#3 -837546202#2 -837546202#1 -837546202#0 -378131054#3 -378131054#2 -378131054#0 -738798589#1 -738798589#0 -738798587#0 -1233790711 -4214427#1 -4214427#0 -4214427#0.27.24 lane_exit_A"/>
    </vehicle>
    <vehicle id="r_ams_ers_1_6_car_aggr4.0" type="car_aggr4" depart="21975.68">
        <route edges="lane_entry_C -1234022735#0 -1234022735#01 -1234022738#1 1068849496 34077067#0 34077067#1 34077067#2 34077067#4 34077067#5 -136646905 -802701450 -48875760#1 -48875760#0 -1155226217 -48875753 -184904443#2 -184904443#1 -1233796574#1 -1233796574#0 -1155226185 -738718554#0 -8135465#4 -8135465#3 -8135465#2 -8135465#1 -8135465#0 -1155226165 -1029849448 -738718556#2 -738718556#1 -738718556#0 -1081667875#1 -1081667875#0 -110431139#1 -110431139#0 -110431158 -837546202#4 -837546202#3 -837546202#2 -837546202#1 -837546202#0 -378131054#3 -378131054#2 -378131054#0 -738798589#1 -738798589#0 -738798587#0 -1233790711 -4214427#1 -4214427#0 -4214427#0.27.24 lane_exit_A"/>
    </vehicle>
    <vehicle id="r_luz_tun_aEr_eAm_5_car_aggr1.1" type="car_aggr1" depart="22055.45">
        <route edges="lane_entry_A 4214427#0.27.24 4214427#0.27.43 4214427#1 1233790711 738798587#0 738798587#1 738798589#1 738798589#2 378131054#2 378131054#3 837546190#1 837546202#1 837546202#2 837546202#3 837546202#4 110431158 110431139#0 110431139#1 110431139#2 1081667875#1 738718556#0 738718556#1 738718556#2 738718556#3 1155226165 8135465#0 8135465#1 8135465#2 8135465#3 8135465#4 8135465#5 184904444 1233796574#0 1233796574#1 184904443#1 184904443#2 48875753 1155226217 136646900 48875760#1 802701450 136646905 43202568 lane_exit_speed_B lane_exit_B"/>
    </vehicle>
    <vehicle id="r_ams_ers_1_6_car_aggr1.0" type="car_aggr1" depart="22216.31">