<?xml version="1.0" encoding="UTF-8"?>

<!-- generated on 2025-05-20 13:46:22 by Eclipse SUMO duarouter Version 1.22.0
<duarouterConfiguration xmlns:xsi="http://www.w3.org/2001/XMLSchema-instance" xsi:noNamespaceSchemaLocation="http://sumo.dlr.de/xsd/duarouterConfiguration.xsd">

    <input>
        <net-file value="../simulation/villages/Goeschenen/goeschenen_osm.net.xml"/>
        <additional-files value="data/vehicle_types_new.xml"/>
        <route-files value="output/reconstructed_trips_goeschenen.trips.xml"/>
    </input>

    <output>
        <output-file value="output/20_11_routes_goeschenen.rou.xml"/>
    </output>

</duarouterConfiguration>
-->

<routes xmlns:xsi="http://www.w3.org/2001/XMLSchema-instance" xsi:noNamespaceSchemaLocation="http://sumo.dlr.de/xsd/routes_file.xsd">
    <vType id="car_aggr4" maxSpeed="40.00" speedFactor="normc(0.95,0.12,0.20,2.00)" vClass="passenger" impatience="3.50" minGapLat="0.40" lcStrategic="15" lcCooperative="0.1" lcSpeedGain="10.0" lcKeepRight="0.2" lcSublane="5.0" lcPushy="2.6" lcPushyGap="0.2" lcAssertive="4.2" lcImpatience="2.5" lcTimeToImpatience="6" lcSigma="1.0" accel="2.8" decel="6.0" tau="3.0">
        <param key="laneChangeModel" value="SL2015"/>
    </vType>
    <vehicle id="r_axs_tun_aEr_eGo_1_car_aggr4.0" type="car_aggr4" depart="5691.26">
        <route edges="lane_entry_C 268051640#1.35 268051640#1.56 268051640#2 4212603#1 1255318896 4212611 1316288014 33521930 304476604#0 304476604#1 304476604#2 lane_exit_speed_B lane_exit_B"/>
    </vehicle>
    <vType id="car_aggr3" maxSpeed="40.00" speedFactor="normc(0.90,0.10,0.20,2.00)" vClass="passenger" impatience="3.00" minGapLat="0.50" lcStrategic="25" lcCooperative="0.2" lcSpeedGain="9.0" lcKeepRight="0.3" lcSublane="4.0" lcPushy="2.2" lcPushyGap="0.3" lcAssertive="3.5" lcImpatience="2.0" lcTimeToImpatience="9" lcSigma="0.8" accel="2.5" decel="5.0" tau="3.5">
        <param key="laneChangeModel" value="SL2015"/>
    </vType>
    <vehicle id="r_luz_tun_aAm_eGo_1_car_aggr3.0" type="car_aggr3" depart="7977.39">
        <route edges="lane_entry_C 268051640#1.35 268051640#1.56 268051640#2 4212603#1 1255318896 4212611 1316288014 33521930 304476604#0 304476604#1 304476604#2 lane_exit_speed_B lane_exit_B"/>
    </vehicle>
    <vType id="big_truck" length="12.00" maxSpeed="22.00" speedFactor="normc(0.75,0.04,0.20,2.00)" vClass="truck" impatience="1.80" minGapLat="0.80" lcStrategic="200" lcCooperative="0.1" lcSpeedGain="4.0" lcKeepRight="0.8" lcSublane="1.5" lcPushy="1.2" lcPushyGap="0.3" lcAssertive="2.5" lcImpatience="1.5" lcTimeToImpatience="10" lcSigma="0.4" accel="1.4" decel="3.2" tau="3.5">
        <param key="laneChangeModel" value="SL2015"/>
    </vType>
    <vehicle id="r_luz_tun_aAm_eGo_1_big_truck.0" type="big_truck" depart="8203.64">
        <route edges="lane_entry_C 268051640#1.35 268051640#1.56 268051640#2 4212603#1 1255318896 4212611 1316288014 33521930 304476604#0 304476604#1 304476604#2 lane_exit_speed_B lane_exit_B"/>
    </vehicle>
    <vehicle id="r_and_alt_1_2_car_aggr4.0" type="car_aggr4" depart="9030.56">
        <route edges="lane_entry_E ppp -24765228 -1194954756 -1194954755 -26825652#0 -1194954753 -1194954747#1 -1194954747#0 4212603#5 -268051640#2 -268051640#1 lane_exit_speed_C lane_exit_C"/>
    </vehicle>
    <vehicle id="r_axs_tun_aEr_eGo_1_car_aggr3.0" type="car_aggr3" depart="9103.28">
        <route edges="lane_entry_C 268051640#1.35 268051640#1.56 268051640#2 4212603#1 1255318896 4212611 1316288014 33521930 304476604#0 304476604#1 304476604#2 lane_exit_speed_B lane_exit_B"/>
    </vehicle>
    <vType id="small_truck" length="6.50" maxSpeed="28.00" speedFactor="normc(0.85,0.05,0.20,2.00)" vClass="delivery" impatience="2.50" minGapLat="0.60" lcStrategic="35" lcCooperative="0.3" lcSpeedGain="6.0" lcKeepRight="0.4" lcSublane="2.0" lcPushy="1.8" lcPushyGap="0.4" lcAssertive="2.5" lcImpatience="1.8" lcTimeToImpatience="10" lcSigma="0.5" accel="2.2" decel="4.0" tau="2.8">
        <param key="laneChangeModel" value="SL2015"/>
    </vType>
    <vehicle id="r_axs_tun_aEr_eGo_1_small_truck.0" type="small_truck" depart="9372.41">
        <route edges="lane_entry_C 268051640#1.35 268051640#1.56 268051640#2 4212603#1 1255318896 4212611 1316288014 33521930 304476604#0 304476604#1 304476604#2 lane_exit_speed_B lane_exit_B"/>
    </vehicle>
    <vType id="car_aggr2" maxSpeed="35.00" speedFactor="normc(0.85,0.09,0.20,2.00)" vClass="passenger" impatience="2.50" minGapLat="0.60" lcStrategic="40" lcCooperative="0.3" lcSpeedGain="8.0" lcKeepRight="0.5" lcSublane="3.0" lcPushy="1.8" lcPushyGap="0.4" lcAssertive="2.8" lcImpatience="1.5" lcTimeToImpatience="12" lcSigma="0.6" accel="2.2" decel="4.0" tau="4.5">
        <param key="laneChangeModel" value="SL2015"/>
    </vType>
    <vehicle id="r_tun_axs_KS_____3_car_aggr2.0" type="car_aggr2" depart="12507.28">
        <route edges="lane_entry_B 43347599.51 1316288013 304476606 4212603#3 4212603#4 4212603#5 -268051640#2 -268051640#1 lane_exit_speed_C lane_exit_C"/>
    </vehicle>
    <vehicle id="r_tun_axs_KS_____3_car_aggr3.0" type="car_aggr3" depart="12941.04">
        <route edges="lane_entry_B 43347599.51 1316288013 304476606 4212603#3 4212603#4 4212603#5 -268051640#2 -268051640#1 lane_exit_speed_C lane_exit_C"/>
    </vehicle>
    <vehicle id="r_tun_axs_KS_____3_car_aggr3.1" type="car_aggr3" depart="13821.49">
        <route edges="lane_entry_B 43347599.51 1316288013 304476606 4212603#3 4212603#4 4212603#5 -268051640#2 -268051640#1 lane_exit_speed_C lane_exit_C"/>
    </vehicle>
    <vehicle id="r_tun_axs_KS_____3_car_aggr3.2" type="car_aggr3" depart="14110.61">
        <route edges="lane_entry_B 43347599.51 1316288013 304476606 4212603#3 4212603#4 4212603#5 -268051640#2 -268051640#1 lane_exit_speed_C lane_exit_C"/>
    </vehicle>
    <vehicle id="r_and_alt_1_4_car_aggr3.0" type="car_aggr3" depart="16637.77">
        <route edges="lane_entry_E ppp -24765228 -1194954756 -1194954755 -26825652#0 -1194954753 -1194954747#1 -1194954747#0 4212603#5 -268051640#2 -268051640#1 lane_exit_speed_C lane_exit_C"/>
    </vehicle>
    <vehicle id="r_and_alt_1_4_car_aggr4.0" type="car_aggr4" depart="18198.34">
        <route edges="lane_entry_E ppp -24765228 -1194954756 -1194954755 -26825652#0 -1194954753 -1194954747#1 -1194954747#0 4212603#5 -268051640#2 -268051640#1 lane_exit_speed_C lane_exit_C"/>
    </vehicle>
    <vehicle id="r_and_alt_1_6_car_aggr2.0" type="car_aggr2" depart="22153.03">
        <route edges="lane_entry_E ppp -24765228 -1194954756 -1194954755 -26825652#0 -1194954753 -1194954747#1 -1194954747#0 4212603#5 -268051640#2 -268051640#1 lane_exit_speed_C lane_exit_C"/>
    </vehicle>
    <vehicle id="r_and_alt_1_6_car_aggr3.0" type="car_aggr3" depart="22383.82">
        <route edges="lane_entry_E ppp -24765228 -1194954756 -1194954755 -26825652#0 -1194954753 -1194954747#1 -1194954747#0 4212603#5 -268051640#2 -268051640#1 lane_exit_speed_C lane_exit_C"/>
    </vehicle>
    <vehicle id="r_and_alt_1_6_car_aggr3.1" type="car_aggr3" depart="22471.87">
        <route edges="lane_entry_E ppp -24765228 -1194954756 -1194954755 -26825652#0 -1194954753 -1194954747#1 -1194954747#0 4212603#5 -268051640#2 -268051640#1 lane_exit_speed_C lane_exit_C"/>
    </vehicle>
    <vehicle id="r_and_alt_1_6_car_aggr3.2" type="car_aggr3" depart="23498.98">
        <route edges="lane_entry_E ppp -24765228 -1194954756 -1194954755 -26825652#0 -1194954753 -1194954747#1 -1194954747#0 4212603#5 -268051640#2 -268051640#1 lane_exit_speed_C lane_exit_C"/>
    </vehicle>
    <vehicle id="r_alt_and_1_6_car_aggr3.0" type="car_aggr3" depart="23619.59">
        <route edges="lane_entry_C 268051640#1.35 268051640#1.56 268051640#2 4212603#1 4212603#2 4212603#3 4212603#4 1194954747#0 1194954747#1 1194954753 26825652#0 26825652#1 1194954756 1194954754 lane_exit_speed_E lane_exit_E"/>
    </vehicle>
    <vehicle id="r_and_alt_1_6_small_truck.0" type="small_truck" depart="24077.37">
        <route edges="lane_entry_E ppp -24765228 -1194954756 -1194954755 -26825652#0 -1194954753 -1194954747#1 -1194954747#0 4212603#5 -268051640#2 -268051640#1 lane_exit_speed_C lane_exit_C"/>
    </vehicle>
    <vehicle id="r_and_alt_1_6_car_aggr4.0" type="car_aggr4" depart="24384.97">
        <route edges="lane_entry_E ppp -24765228 -1194954756 -1194954755 -26825652#0 -1194954753 -1194954747#1 -1194954747#0 4212603#5 -268051640#2 -268051640#1 lane_exit_speed_C lane_exit_C"/>
    </vehicle>
    <vehicle id="r_and_alt_1_6_car_aggr2.1" type="car_aggr2" depart="24508.15">
        <route edges="lane_entry_E ppp -24765228 -1194954756 -1194954755 -26825652#0 -1194954753 -1194954747#1 -1194954747#0 4212603#5 -268051640#2 -268051640#1 lane_exit_speed_C lane_exit_C"/>
    </vehicle>
    <vType id="car_aggr5" maxSpeed="45.00" speedFactor="normc(1.00,0.15,0.20,2.00)" vClass="passenger" impatience="4.00" minGapLat="0.30" lcStrategic="5" lcCooperative="0.0" lcSpeedGain="11.0" lcKeepRight="0.0" lcSublane="6.0" lcPushy="3.0" lcPushyGap="0.1" lcAssertive="5.0" lcImpatience="3.0" lcTimeToImpatience="3" lcSigma="1.2" accel="3.0" decel="8.0" tau="2.5">
        <param key="laneChangeModel" value="SL2015"/>
    </vType>
    <vehicle id="r_and_alt_1_6_car_aggr5.0" type="car_aggr5" depart="24783.04">
        <route edges="lane_entry_E ppp -24765228 -1194954756 -1194954755 -26825652#0 -1194954753 -1194954747#1 -1194954747#0 4212603#5 -268051640#2 -268051640#1 lane_exit_speed_C lane_exit_C"/>
    </vehicle>
    <vehicle id="r_alt_and_1_6_big_truck.0" type="big_truck" depart="24859.21">
        <route edges="lane_entry_C 268051640#1.35 268051640#1.56 268051640#2 4212603#1 4212603#2 4212603#3 4212603#4 1194954747#0 1194954747#1 1194954753 26825652#0 26825652#1 1194954756 1194954754 lane_exit_speed_E lane_exit_E"/>
    </vehicle>
    <vehicle id="r_alt_and_1_6_car_aggr4.0" type="car_aggr4" depart="25008.89">
        <route edges="lane_entry_C 268051640#1.35 268051640#1.56 268051640#2 4212603#1 4212603#2 4212603#3 4212603#4 1194954747#0 1194954747#1 1194954753 26825652#0 26825652#1 1194954756 1194954754 lane_exit_speed_E lane_exit_E"/>
    </vehicle>
    <vehicle id="r_alt_and_1_6_small_truck.0" type="small_truck" depart="25044.56">
        <route edges="lane_entry_C 268051640#1.35 268051640#1.56 268051640#2 4212603#1 4212603#2 4212603#3 4212603#4 1194954747#0 1194954747#1 1194954753 26825652#0 26825652#1 1194954756 1194954754 lane_exit_speed_E lane_exit_E"/>
    </vehicle>
    <vehicle id="r_and_alt_1_7_car_aggr3.0" type="car_aggr3" depart="25862.84">
        <route edges="lane_entry_E ppp -24765228 -1194954756 -1194954755 -26825652#0 -1194954753 -1194954747#1 -1194954747#0 4212603#5 -268051640#2 -268051640#1 lane_exit_speed_C lane_exit_C"/>
    </vehicle>
    <vehicle id="r_and_alt_1_7_car_aggr2.0" type="car_aggr2" depart="25915.25">
        <route edges="lane_entry_E ppp -24765228 -1194954756 -1194954755 -26825652#0 -1194954753 -1194954747#1 -1194954747#0 4212603#5 -268051640#2 -268051640#1 lane_exit_speed_C lane_exit_C"/>
    </vehicle>
    <vehicle id="r_and_alt_1_7_car_aggr5.0" type="car_aggr5" depart="25977.33">
        <route edges="lane_entry_E ppp -24765228 -1194954756 -1194954755 -26825652#0 -1194954753 -1194954747#1 -1194954747#0 4212603#5 -268051640#2 -268051640#1 lane_exit_speed_C lane_exit_C"/>
    </vehicle>
    <vehicle id="r_alt_and_1_6_car_aggr3.1" type="car_aggr3" depart="26102.88">
        <route edges="lane_entry_C 268051640#1.35 268051640#1.56 268051640#2 4212603#1 4212603#2 4212603#3 4212603#4 1194954747#0 1194954747#1 1194954753 26825652#0 26825652#1 1194954756 1194954754 lane_exit_speed_E lane_exit_E"/>
    </vehicle>
    <vehicle id="r_and_alt_1_7_big_truck.0" type="big_truck" depart="26235.16">
        <route edges="lane_entry_E ppp -24765228 -1194954756 -1194954755 -26825652#0 -1194954753 -1194954747#1 -1194954747#0 4212603#5 -268051640#2 -268051640#1 lane_exit_speed_C lane_exit_C"/>
    </vehicle>
    <vehicle id="r_alt_and_1_6_small_truck.1" type="small_truck" depart="26395.88">
        <route edges="lane_entry_C 268051640#1.35 268051640#1.56 268051640#2 4212603#1 4212603#2 4212603#3 4212603#4 1194954747#0 1194954747#1 1194954753 26825652#0 26825652#1 1194954756 1194954754 lane_exit_speed_E lane_exit_E"/>
    </vehicle>
    <vType id="car_aggr1" maxSpeed="35.00" speedFactor="normc(0.80,0.08,0.20,2.00)" vClass="passenger" impatience="2.00" minGapLat="0.80" lcStrategic="60" lcCooperative="0.5" lcSpeedGain="7.0" lcKeepRight="0.6" lcSublane="2.0" lcPushy="1.2" lcPushyGap="0.5" lcAssertive="2.0" lcImpatience="1.0" lcTimeToImpatience="15" lcSigma="0.4" accel="1.8" decel="3.0" tau="5.0">
        <param key="laneChangeModel" value="SL2015"/>
    </vType>
    <vehicle id="r_and_alt_1_7_car_aggr1.0" type="car_aggr1" depart="26405.53">
        <route edges="lane_entry_E ppp -24765228 -1194954756 -1194954755 -26825652#0 -1194954753 -1194954747#1 -1194954747#0 4212603#5 -268051640#2 -268051640#1 lane_exit_speed_C lane_exit_C"/>
    </vehicle>
    <vehicle id="r_and_alt_1_7_big_truck.1" type="big_truck" depart="26505.10">
        <route edges="lane_entry_E ppp -24765228 -1194954756 -1194954755 -26825652#0 -1194954753 -1194954747#1 -1194954747#0 4212603#5 -268051640#2 -268051640#1 lane_exit_speed_C lane_exit_C"/>
    </vehicle>
    <vehicle id="r_and_alt_1_7_car_aggr1.1" type="car_aggr1" depart="26644.97">
        <route edges="lane_entry_E ppp -24765228 -1194954756 -1194954755 -26825652#0 -1194954753 -1194954747#1 -1194954747#0 4212603#5 -268051640#2 -268051640#1 lane_exit_speed_C lane_exit_C"/>
    </vehicle>
    <vehicle id="r_and_alt_1_7_car_aggr5.1" type="car_aggr5" depart="26648.47">
        <route edges="lane_entry_E ppp -24765228 -1194954756 -1194954755 -26825652#0 -1194954753 -1194954747#1 -1194954747#0 4212603#5 -268051640#2 -268051640#1 lane_exit_speed_C lane_exit_C"/>
    </vehicle>
    <vehicle id="r_and_alt_1_7_car_aggr3.1" type="car_aggr3" depart="26656.97">
        <route edges="lane_entry_E ppp -24765228 -1194954756 -1194954755 -26825652#0 -1194954753 -1194954747#1 -1194954747#0 4212603#5 -268051640#2 -268051640#1 lane_exit_speed_C lane_exit_C"/>
    </vehicle>
    <vehicle id="r_and_alt_1_7_car_aggr4.0" type="car_aggr4" depart="26695.01">
        <route edges="lane_entry_E ppp -24765228 -1194954756 -1194954755 -26825652#0 -1194954753 -1194954747#1 -1194954747#0 4212603#5 -268051640#2 -268051640#1 lane_exit_speed_C lane_exit_C"/>
    </vehicle>
    <vehicle id="r_and_alt_1_7_car_aggr5.2" type="car_aggr5" depart="26808.18">
        <route edges="lane_entry_E ppp -24765228 -1194954756 -1194954755 -26825652#0 -1194954753 -1194954747#1 -1194954747#0 4212603#5 -268051640#2 -268051640#1 lane_exit_speed_C lane_exit_C"/>
    </vehicle>
    <vehicle id="r_and_alt_1_7_car_aggr3.2" type="car_aggr3" depart="26815.57">
        <route edges="lane_entry_E ppp -24765228 -1194954756 -1194954755 -26825652#0 -1194954753 -1194954747#1 -1194954747#0 4212603#5 -268051640#2 -268051640#1 lane_exit_speed_C lane_exit_C"/>
    </vehicle>
    <vType id="motorbike" minGap="1.50" maxSpeed="35.00" speedFactor="normc(0.93,0.09,0.20,2.00)" vClass="motorcycle" impatience="3.80" minGapLat="0.40" lcStrategic="20" lcCooperative="0.2" lcSpeedGain="10.0" lcKeepRight="0.3" lcSublane="5.0" lcPushy="2.5" lcPushyGap="0.3" lcAssertive="3.8" lcImpatience="2.4" lcTimeToImpatience="9" lcSigma="0.9" accel="4.5" decel="7.0" tau="3.0">
        <param key="laneChangeModel" value="SL2015"/>
    </vType>
    <vehicle id="r_and_alt_1_7_motorbike.0" type="motorbike" depart="26844.06">
        <route edges="lane_entry_E ppp -24765228 -1194954756 -1194954755 -26825652#0 -1194954753 -1194954747#1 -1194954747#0 4212603#5 -268051640#2 -268051640#1 lane_exit_speed_C lane_exit_C"/>
    </vehicle>
    <vehicle id="r_and_alt_1_7_car_aggr3.3" type="car_aggr3" depart="26920.43">
        <route edges="lane_entry_E ppp -24765228 -1194954756 -1194954755 -26825652#0 -1194954753 -1194954747#1 -1194954747#0 4212603#5 -268051640#2 -268051640#1 lane_exit_speed_C lane_exit_C"/>
    </vehicle>
    <vehicle id="r_and_alt_1_7_car_aggr1.2" type="car_aggr1" depart="27015.34">
        <route edges="lane_entry_E ppp -24765228 -1194954756 -1194954755 -26825652#0 -1194954753 -1194954747#1 -1194954747#0 4212603#5 -268051640#2 -268051640#1 lane_exit_speed_C lane_exit_C"/>
    </vehicle>
    <vehicle id="r_and_alt_1_7_car_aggr1.3" type="car_aggr1" depart="27061.90">
        <route edges="lane_entry_E ppp -24765228 -1194954756 -1194954755 -26825652#0 -1194954753 -1194954747#1 -1194954747#0 4212603#5 -268051640#2 -268051640#1 lane_exit_speed_C lane_exit_C"/>
    </vehicle>
    <vehicle id="r_and_alt_1_7_big_truck.2" type="big_truck" depart="27140.17">
        <route edges="lane_entry_E ppp -24765228 -1194954756 -1194954755 -26825652#0 -1194954753 -1194954747#1 -1194954747#0 4212603#5 -268051640#2 -268051640#1 lane_exit_speed_C lane_exit_C"/>
    </vehicle>
    <vehicle id="r_and_alt_1_7_motorbike.1" type="motorbike" depart="27144.73">
        <route edges="lane_entry_E ppp -24765228 -1194954756 -1194954755 -26825652#0 -1194954753 -1194954747#1 -1194954747#0 4212603#5 -268051640#2 -268051640#1 lane_exit_speed_C lane_exit_C"/>
    </vehicle>
    <vehicle id="r_and_alt_1_7_car_aggr5.3" type="car_aggr5" depart="27147.79">
        <route edges="lane_entry_E ppp -24765228 -1194954756 -1194954755 -26825652#0 -1194954753 -1194954747#1 -1194954747#0 4212603#5 -268051640#2 -268051640#1 lane_exit_speed_C lane_exit_C"/>
    </vehicle>
    <vehicle id="r_and_alt_1_7_motorbike.2" type="motorbike" depart="27190.43">
        <route edges="lane_entry_E ppp -24765228 -1194954756 -1194954755 -26825652#0 -1194954753 -1194954747#1 -1194954747#0 4212603#5 -268051640#2 -268051640#1 lane_exit_speed_C lane_exit_C"/>
    </vehicle>
    <vehicle id="r_and_alt_1_7_car_aggr3.4" type="car_aggr3" depart="27198.00">
        <route edges="lane_entry_E ppp -24765228 -1194954756 -1194954755 -26825652#0 -1194954753 -1194954747#1 -1194954747#0 4212603#5 -268051640#2 -268051640#1 lane_exit_speed_C lane_exit_C"/>
    </vehicle>
    <vehicle id="r_and_alt_1_7_car_aggr1.4" type="car_aggr1" depart="27381.79">
        <route edges="lane_entry_E ppp -24765228 -1194954756 -1194954755 -26825652#0 -1194954753 -1194954747#1 -1194954747#0 4212603#5 -268051640#2 -268051640#1 lane_exit_speed_C lane_exit_C"/>
    </vehicle>
    <vehicle id="r_and_alt_1_7_car_aggr1.5" type="car_aggr1" depart="27472.65">
        <route edges="lane_entry_E ppp -24765228 -1194954756 -1194954755 -26825652#0 -1194954753 -1194954747#1 -1194954747#0 4212603#5 -268051640#2 -268051640#1 lane_exit_speed_C lane_exit_C"/>
    </vehicle>
    <vehicle id="r_and_alt_1_7_car_aggr3.5" type="car_aggr3" depart="27604.85">
        <route edges="lane_entry_E ppp -24765228 -1194954756 -1194954755 -26825652#0 -1194954753 -1194954747#1 -1194954747#0 4212603#5 -268051640#2 -268051640#1 lane_exit_speed_C lane_exit_C"/>
    </vehicle>
    <vehicle id="r_and_alt_1_7_car_aggr1.6" type="car_aggr1" depart="27721.10">
        <route edges="lane_entry_E ppp -24765228 -1194954756 -1194954755 -26825652#0 -1194954753 -1194954747#1 -1194954747#0 4212603#5 -268051640#2 -268051640#1 lane_exit_speed_C lane_exit_C"/>
    </vehicle>
    <vehicle id="r_and_alt_1_7_car_aggr5.4" type="car_aggr5" depart="27982.84">
        <route edges="lane_entry_E ppp -24765228 -1194954756 -1194954755 -26825652#0 -1194954753 -1194954747#1 -1194954747#0 4212603#5 -268051640#2 -268051640#1 lane_exit_speed_C lane_exit_C"/>
    </vehicle>
    <vehicle id="r_and_alt_1_7_car_aggr5.5" type="car_aggr5" depart="27986.47">
        <route edges="lane_entry_E ppp -24765228 -1194954756 -1194954755 -26825652#0 -1194954753 -1194954747#1 -1194954747#0 4212603#5 -268051640#2 -268051640#1 lane_exit_speed_C lane_exit_C"/>
    </vehicle>
    <vehicle id="r_and_alt_1_7_car_aggr4.1" type="car_aggr4" depart="27990.52">
        <route edges="lane_entry_E ppp -24765228 -1194954756 -1194954755 -26825652#0 -1194954753 -1194954747#1 -1194954747#0 4212603#5 -268051640#2 -268051640#1 lane_exit_speed_C lane_exit_C"/>
    </vehicle>
    <vehicle id="r_luz_tun_aAm_eGo_7_car_aggr3.0" type="car_aggr3" depart="28081.84">
        <route edges="lane_entry_C 268051640#1.35 268051640#1.56 268051640#2 4212603#1 1255318896 4212611 1316288014 33521930 304476604#0 304476604#1 304476604#2 lane_exit_speed_B lane_exit_B"/>
    </vehicle>
    <vehicle id="r_and_alt_1_7_car_aggr1.7" type="car_aggr1" depart="28182.57">
        <route edges="lane_entry_E ppp -24765228 -1194954756 -1194954755 -26825652#0 -1194954753 -1194954747#1 -1194954747#0 4212603#5 -268051640#2 -268051640#1 lane_exit_speed_C lane_exit_C"/>
    </vehicle>
    <vehicle id="r_and_alt_1_7_car_aggr4.2" type="car_aggr4" depart="28186.53">
        <route edges="lane_entry_E ppp -24765228 -1194954756 -1194954755 -26825652#0 -1194954753 -1194954747#1 -1194954747#0 4212603#5 -268051640#2 -268051640#1 lane_exit_speed_C lane_exit_C"/>
    </vehicle>
    <vehicle id="r_luz_tun_aAm_eGo_7_car_aggr1.1" type="car_aggr1" depart="28316.46">
        <route edges="lane_entry_C 268051640#1.35 268051640#1.56 268051640#2 4212603#1 1255318896 4212611 1316288014 33521930 304476604#0 304476604#1 304476604#2 lane_exit_speed_B lane_exit_B"/>
    </vehicle>
    <vehicle id="r_and_alt_1_7_small_truck.0" type="small_truck" depart="28344.09">
        <route edges="lane_entry_E ppp -24765228 -1194954756 -1194954755 -26825652#0 -1194954753 -1194954747#1 -1194954747#0 4212603#5 -268051640#2 -268051640#1 lane_exit_speed_C lane_exit_C"/>
    </vehicle>
    <vehicle id="r_luz_tun_aAm_eGo_7_car_aggr1.0" type="car_aggr1" depart="28484.45">
        <route edges="lane_entry_C 268051640#1.35 268051640#1.56 268051640#2 4212603#1 1255318896 4212611 1316288014 33521930 304476604#0 304476604#1 304476604#2 lane_exit_speed_B lane_exit_B"/>
    </vehicle>
    <vehicle id="r_luz_tun_aAm_eGo_7_car_aggr3.1" type="car_aggr3" depart="28488.64">
        <route edges="lane_entry_C 268051640#1.35 268051640#1.56 268051640#2 4212603#1 1255318896 4212611 1316288014 33521930 304476604#0 304476604#1 304476604#2 lane_exit_speed_B lane_exit_B"/>
    </vehicle>
    <vehicle id="r_alt_and_1_7_car_aggr4.0" type="car_aggr4" depart="28492.43">
        <route edges="lane_entry_C 268051640#1.35 268051640#1.56 268051640#2 4212603#1 4212603#2 4212603#3 4212603#4 1194954747#0 1194954747#1 1194954753 26825652#0 26825652#1 1194954756 1194954754 lane_exit_speed_E lane_exit_E"/>
    </vehicle>
    <vehicle id="r_luz_tun_aEr_eGo_7_car_aggr3.0" type="car_aggr3" depart="28496.98">
        <route edges="lane_entry_C 268051640#1.35 268051640#1.56 268051640#2 4212603#1 1255318896 4212611 1316288014 33521930 304476604#0 304476604#1 304476604#2 lane_exit_speed_B lane_exit_B"/>
    </vehicle>
    <vehicle id="r_and_alt_1_7_car_aggr4.3" type="car_aggr4" depart="28619.47">
        <route edges="lane_entry_E ppp -24765228 -1194954756 -1194954755 -26825652#0 -1194954753 -1194954747#1 -1194954747#0 4212603#5 -268051640#2 -268051640#1 lane_exit_speed_C lane_exit_C"/>
    </vehicle>
    <vehicle id="r_and_alt_1_7_car_aggr4.4" type="car_aggr4" depart="28623.82">
        <route edges="lane_entry_E ppp -24765228 -1194954756 -1194954755 -26825652#0 -1194954753 -1194954747#1 -1194954747#0 4212603#5 -268051640#2 -268051640#1 lane_exit_speed_C lane_exit_C"/>
    </vehicle>
    <vehicle id="r_and_alt_1_7_car_aggr3.6" type="car_aggr3" depart="28648.36">
        <route edges="lane_entry_E ppp -24765228 -1194954756 -1194954755 -26825652#0 -1194954753 -1194954747#1 -1194954747#0 4212603#5 -268051640#2 -268051640#1 lane_exit_speed_C lane_exit_C"/>
    </vehicle>
    <vehicle id="r_and_alt_1_7_car_aggr3.7" type="car_aggr3" depart="28652.78">
        <route edges="lane_entry_E ppp -24765228 -1194954756 -1194954755 -26825652#0 -1194954753 -1194954747#1 -1194954747#0 4212603#5 -268051640#2 -268051640#1 lane_exit_speed_C lane_exit_C"/>
    </vehicle>
    <vehicle id="r_and_alt_1_7_car_aggr5.6" type="car_aggr5" depart="28685.10">
        <route edges="lane_entry_E ppp -24765228 -1194954756 -1194954755 -26825652#0 -1194954753 -1194954747#1 -1194954747#0 4212603#5 -268051640#2 -268051640#1 lane_exit_speed_C lane_exit_C"/>
    </vehicle>
    <vehicle id="r_and_alt_1_7_car_aggr2.1" type="car_aggr2" depart="28829.76">
        <route edges="lane_entry_E ppp -24765228 -1194954756 -1194954755 -26825652#0 -1194954753 -1194954747#1 -1194954747#0 4212603#5 -268051640#2 -268051640#1 lane_exit_speed_C lane_exit_C"/>
    </vehicle>
    <vehicle id="r_luz_tun_aAm_eGo_7_car_aggr1.2" type="car_aggr1" depart="28839.74">
        <route edges="lane_entry_C 268051640#1.35 268051640#1.56 268051640#2 4212603#1 1255318896 4212611 1316288014 33521930 304476604#0 304476604#1 304476604#2 lane_exit_speed_B lane_exit_B"/>
    </vehicle>
    <vehicle id="r_luz_tun_aAm_eGo_7_car_aggr2.0" type="car_aggr2" depart="28844.92">
        <route edges="lane_entry_C 268051640#1.35 268051640#1.56 268051640#2 4212603#1 1255318896 4212611 1316288014 33521930 304476604#0 304476604#1 304476604#2 lane_exit_speed_B lane_exit_B"/>
    </vehicle>
    <vehicle id="r_alt_and_1_7_car_aggr1.0" type="car_aggr1" depart="28853.44">
        <route edges="lane_entry_C 268051640#1.35 268051640#1.56 268051640#2 4212603#1 4212603#2 4212603#3 4212603#4 1194954747#0 1194954747#1 1194954753 26825652#0 26825652#1 1194954756 1194954754 lane_exit_speed_E lane_exit_E"/>
    </vehicle>
    <vehicle id="r_and_alt_1_8_car_aggr5.0" type="car_aggr5" depart="29099.02">
        <route edges="lane_entry_E ppp -24765228 -1194954756 -1194954755 -26825652#0 -1194954753 -1194954747#1 -1194954747#0 4212603#5 -268051640#2 -268051640#1 lane_exit_speed_C lane_exit_C"/>
    </vehicle>
    <vehicle id="r_luz_tun_aAm_eGo_7_small_truck.0" type="small_truck" depart="29174.24">
        <route edges="lane_entry_C 268051640#1.35 268051640#1.56 268051640#2 4212603#1 1255318896 4212611 1316288014 33521930 304476604#0 304476604#1 304476604#2 lane_exit_speed_B lane_exit_B"/>
    </vehicle>
    <vehicle id="r_luz_tun_aAm_eGo_7_car_aggr1.3" type="car_aggr1" depart="29305.30">
        <route edges="lane_entry_C 268051640#1.35 268051640#1.56 268051640#2 4212603#1 1255318896 4212611 1316288014 33521930 304476604#0 304476604#1 304476604#2 lane_exit_speed_B lane_exit_B"/>
    </vehicle>
    <vehicle id="r_luz_tun_aEr_eGo_7_car_aggr3.1" type="car_aggr3" depart="29309.52">
        <route edges="lane_entry_C 268051640#1.35 268051640#1.56 268051640#2 4212603#1 1255318896 4212611 1316288014 33521930 304476604#0 304476604#1 304476604#2 lane_exit_speed_B lane_exit_B"/>
    </vehicle>
    <vehicle id="r_and_alt_1_8_car_aggr4.0" type="car_aggr4" depart="29650.42">
        <route edges="lane_entry_E ppp -24765228 -1194954756 -1194954755 -26825652#0 -1194954753 -1194954747#1 -1194954747#0 4212603#5 -268051640#2 -268051640#1 lane_exit_speed_C lane_exit_C"/>
    </vehicle>
    <vehicle id="r_and_alt_1_8_car_aggr3.0" type="car_aggr3" depart="29655.14">
        <route edges="lane_entry_E ppp -24765228 -1194954756 -1194954755 -26825652#0 -1194954753 -1194954747#1 -1194954747#0 4212603#5 -268051640#2 -268051640#1 lane_exit_speed_C lane_exit_C"/>
    </vehicle>
    <vehicle id="r_and_alt_1_8_car_aggr3.1" type="car_aggr3" depart="29660.64">
        <route edges="lane_entry_E ppp -24765228 -1194954756 -1194954755 -26825652#0 -1194954753 -1194954747#1 -1194954747#0 4212603#5 -268051640#2 -268051640#1 lane_exit_speed_C lane_exit_C"/>
    </vehicle>
    <vehicle id="r_luz_tun_aAm_eGo_7_car_aggr2.1" type="car_aggr2" depart="29739.79">
        <route edges="lane_entry_C 268051640#1.35 268051640#1.56 268051640#2 4212603#1 1255318896 4212611 1316288014 33521930 304476604#0 304476604#1 304476604#2 lane_exit_speed_B lane_exit_B"/>
    </vehicle>
    <vehicle id="r_luz_tun_aEr_eGo_7_car_aggr2.0" type="car_aggr2" depart="29745.06">
        <route edges="lane_entry_C 268051640#1.35 268051640#1.56 268051640#2 4212603#1 1255318896 4212611 1316288014 33521930 304476604#0 304476604#1 304476604#2 lane_exit_speed_B lane_exit_B"/>
    </vehicle>
    <vehicle id="r_and_alt_1_8_big_truck.0" type="big_truck" depart="29747.45">
        <route edges="lane_entry_E ppp -24765228 -1194954756 -1194954755 -26825652#0 -1194954753 -1194954747#1 -1194954747#0 4212603#5 -268051640#2 -268051640#1 lane_exit_speed_C lane_exit_C"/>
    </vehicle>
    <vehicle id="r_luz_tun_aEr_eGo_7_small_truck.0" type="small_truck" depart="29748.54">
        <route edges="lane_entry_C 268051640#1.35 268051640#1.56 268051640#2 4212603#1 1255318896 4212611 1316288014 33521930 304476604#0 304476604#1 304476604#2 lane_exit_speed_B lane_exit_B"/>
    </vehicle>
    <vehicle id="r_luz_tun_aEr_eGo_7_small_truck.1" type="small_truck" depart="29890.61">
        <route edges="lane_entry_C 268051640#1.35 268051640#1.56 268051640#2 4212603#1 1255318896 4212611 1316288014 33521930 304476604#0 304476604#1 304476604#2 lane_exit_speed_B lane_exit_B"/>
    </vehicle>
    <vehicle id="r_luz_tun_aAm_eGo_7_car_aggr1.4" type="car_aggr1" depart="29897.07">
        <route edges="lane_entry_C 268051640#1.35 268051640#1.56 268051640#2 4212603#1 1255318896 4212611 1316288014 33521930 304476604#0 304476604#1 304476604#2 lane_exit_speed_B lane_exit_B"/>
    </vehicle>
    <vehicle id="r_luz_tun_aAm_eGo_7_big_truck.0" type="big_truck" depart="29962.34">
        <route edges="lane_entry_C 268051640#1.35 268051640#1.56 268051640#2 4212603#1 1255318896 4212611 1316288014 33521930 304476604#0 304476604#1 304476604#2 lane_exit_speed_B lane_exit_B"/>
    </vehicle>
    <vehicle id="r_luz_tun_aAm_eGo_7_car_aggr5.0" type="car_aggr5" depart="29965.76">
        <route edges="lane_entry_C 268051640#1.35 268051640#1.56 268051640#2 4212603#1 1255318896 4212611 1316288014 33521930 304476604#0 304476604#1 304476604#2 lane_exit_speed_B lane_exit_B"/>
    </vehicle>
    <vehicle id="r_luz_tun_aAm_eGo_7_small_truck.1" type="small_truck" depart="30051.62">