<?xml version='1.0' encoding='utf-8'?>
<trips><trip id="r_alt_round_5_1_car_aggr5.0" depart="3910.17" from="lane_entry_B" to="lane_exit_A" type="car_aggr5" /><trip id="r_ers_alt_1_1_car_aggr1.0" depart="4707.02" from="lane_entry_D" to="lane_exit_B" type="car_aggr1" /><trip id="r_ers_alt_1_1_car_aggr2.0" depart="5310.4" from="lane_entry_D" to="lane_exit_B" type="car_aggr2" /><trip id="r_alt_ers_1_1_car_aggr3.0" depart="5328.02" from="lane_entry_A" to="lane_exit_D" type="car_aggr3" /><trip id="r_ers_alt_1_1_car_aggr3.0" depart="5465.79" from="lane_entry_D" to="lane_exit_B" type="car_aggr3" /><trip id="r_ers_alt_1_1_car_aggr5.0" depart="5483.9" from="lane_entry_D" to="lane_exit_B" type="car_aggr5" /><trip id="r_axs_tun_aAl_eEr_1_car_aggr2.0" depart="5697.14" from="lane_entry_A" to="lane_exit_D" type="car_aggr2" /><trip id="r_ers_alt_1_1_car_aggr3.1" depart="6017.71" from="lane_entry_D" to="lane_exit_B" type="car_aggr3" /><trip id="r_ers_alt_1_1_car_aggr3.2" depart="6115.97" from="lane_entry_D" to="lane_exit_B" type="car_aggr3" /><trip id="r_axs_tun_aAl_eEr_1_car_aggr1.0" depart="6405.6" from="lane_entry_A" to="lane_exit_D" type="car_aggr1" /><trip id="r_axs_tun_aAl_eEr_1_car_aggr4.0" depart="6454.4" from="lane_entry_A" to="lane_exit_D" type="car_aggr4" /><trip id="r_alt_ers_1_1_car_aggr2.0" depart="6700.8" from="lane_entry_A" to="lane_exit_D" type="car_aggr2" /><trip id="r_ers_alt_1_1_motorbike.0" depart="6742.13" from="lane_entry_D" to="lane_exit_B" type="motorbike" /><trip id="r_ers_alt_1_1_car_aggr5.1" depart="6993.63" from="lane_entry_D" to="lane_exit_B" type="car_aggr5" /><trip id="r_axs_tun_aAl_eEr_1_car_aggr4.1" depart="7314.97" from="lane_entry_A" to="lane_exit_D" type="car_aggr4" /><trip id="r_alt_ers_1_1_car_aggr4.0" depart="7363.27" from="lane_entry_A" to="lane_exit_D" type="car_aggr4" /><trip id="r_luz_tun_aAl_eEr_2_car_aggr4.0" depart="9083.29" from="lane_entry_A" to="lane_exit_D" type="car_aggr4" /><trip id="r_alt_ers_1_2_car_aggr5.0" depart="9250.7" from="lane_entry_A" to="lane_exit_D" type="car_aggr5" /><trip id="r_and_alt_1_2_car_aggr4.0" depart="10435.4" from="lane_entry_D" to="lane_exit_B" type="car_aggr4" /><trip id="r_ers_alt_1_3_car_aggr3.0" depart="11875.99" from="lane_entry_D" to="lane_exit_B" type="car_aggr3" /><trip id="r_luz_tun_aAl_eEr_3_car_aggr3.0" depart="12103.5" from="lane_entry_A" to="lane_exit_D" type="car_aggr3" /><trip id="r_ers_alt_1_3_car_aggr3.1" depart="12656.96" from="lane_entry_D" to="lane_exit_B" type="car_aggr3" /><trip id="r_ers_alt_1_3_car_aggr3.2" depart="12790.04" from="lane_entry_D" to="lane_exit_B" type="car_aggr3" /><trip id="r_luz_tun_aAl_eEr_3_small_truck.0" depart="13209.04" from="lane_entry_A" to="lane_exit_D" type="small_truck" /><trip id="r_luz_tun_aAl_eEr_3_car_aggr5.0" depart="13456.58" from="lane_entry_A" to="lane_exit_D" type="car_aggr5" /><trip id="r_ers_alt_1_3_car_aggr4.0" depart="13526.67" from="lane_entry_D" to="lane_exit_B" type="car_aggr4" /><trip id="r_tun_axs_KS_____3_car_aggr2.0" depart="14145.12" from="lane_entry_D" to="lane_exit_B" type="car_aggr2" /><trip id="r_axs_tun_aAl_eEr_3_car_aggr2.0" depart="14472.68" from="lane_entry_A" to="lane_exit_D" type="car_aggr2" /><trip id="r_ers_alt_1_3_car_aggr3.3" depart="14500.11" from="lane_entry_D" to="lane_exit_B" type="car_aggr3" /><trip id="r_tun_axs_KS_____3_car_aggr3.0" depart="14658.28" from="lane_entry_D" to="lane_exit_B" type="car_aggr3" /><trip id="r_alt_round6_4_car_aggr3.0" depart="15254.07" from="lane_entry_A" to="lane_exit_B" type="car_aggr3" /><trip id="r_tun_axs_KS_____3_car_aggr3.1" depart="15264.28" from="lane_entry_D" to="lane_exit_B" type="car_aggr3" /><trip id="r_alt_ers_1_4_car_aggr4.0" depart="15468.39" from="lane_entry_A" to="lane_exit_D" type="car_aggr4" /><trip id="r_tun_axs_KS_____3_car_aggr3.2" depart="15514.06" from="lane_entry_D" to="lane_exit_B" type="car_aggr3" /><trip id="r_alt_round6_4_car_aggr2.0" depart="15590.16" from="lane_entry_A" to="lane_exit_B" type="car_aggr2" /><trip id="r_ers_alt_1_4_motorbike.0" depart="15900.96" from="lane_entry_D" to="lane_exit_B" type="motorbike" /><trip id="r_axs_tun_aAl_eEr_4_small_truck.0" depart="16345.59" from="lane_entry_A" to="lane_exit_D" type="small_truck" /><trip id="r_axs_tun_aAl_eEr_4_car_aggr3.0" depart="16689.79" from="lane_entry_A" to="lane_exit_D" type="car_aggr3" /><trip id="r_alt_round6_4_small_truck.0" depart="17039.26" from="lane_entry_A" to="lane_exit_B" type="small_truck" /><trip id="r_axs_tun_aAl_eEr_4_car_aggr4.0" depart="17049.21" from="lane_entry_A" to="lane_exit_D" type="car_aggr4" /><trip id="r_ers_alt_1_4_car_aggr5.0" depart="17072.29" from="lane_entry_D" to="lane_exit_B" type="car_aggr5" /><trip id="r_ers_alt_1_4_car_aggr5.1" depart="17408.09" from="lane_entry_D" to="lane_exit_B" type="car_aggr5" /><trip id="r_alt_ers_1_4_car_aggr2.0" depart="17480.85" from="lane_entry_A" to="lane_exit_D" type="car_aggr2" /><trip id="r_ers_alt_1_4_car_aggr5.2" depart="17579.53" from="lane_entry_D" to="lane_exit_B" type="car_aggr5" /><trip id="r_ers_alt_1_4_car_aggr3.0" depart="17626.1" from="lane_entry_D" to="lane_exit_B" type="car_aggr3" /><trip id="r_alt_round4_4_car_aggr4.0" depart="17962.03" from="lane_entry_B" to="lane_exit_B" type="car_aggr4" /><trip id="r_alt_round3_4_car_aggr5.0" depart="18025.54" from="lane_entry_B" to="lane_exit_B" type="car_aggr5" /><trip id="r_and_alt_1_4_car_aggr3.0" depart="18065.22" from="lane_entry_D" to="lane_exit_B" type="car_aggr3" /><trip id="r_ers_alt_1_4_car_aggr3.1" depart="18124.65" from="lane_entry_D" to="lane_exit_B" type="car_aggr3" /><trip id="r_ers_alt_1_4_car_aggr4.0" depart="18128.24" from="lane_entry_D" to="lane_exit_B" type="car_aggr4" /><trip id="r_ers_alt_1_5_car_aggr3.0" depart="18441.18" from="lane_entry_D" to="lane_exit_B" type="car_aggr3" /><trip id="r_ers_alt_1_5_car_aggr4.0" depart="18452.36" from="lane_entry_D" to="lane_exit_B" type="car_aggr4" /><trip id="r_ers_alt_1_5_car_aggr3.1" depart="18574.38" from="lane_entry_D" to="lane_exit_B" type="car_aggr3" /><trip id="r_alt_round3_5_car_aggr4.0" depart="18582.17" from="lane_entry_B" to="lane_exit_B" type="car_aggr4" /><trip id="r_ers_alt_1_5_small_truck.0" depart="18616.46" from="lane_entry_D" to="lane_exit_B" type="small_truck" /><trip id="r_ers_alt_1_5_car_aggr4.1" depart="18620.26" from="lane_entry_D" to="lane_exit_B" type="car_aggr4" /><trip id="r_alt_round6_5_big_truck.0" depart="18737.76" from="lane_entry_A" to="lane_exit_B" type="big_truck" /><trip id="r_ers_alt_1_5_car_aggr1.0" depart="18767.16" from="lane_entry_D" to="lane_exit_B" type="car_aggr1" /><trip id="r_axs_tun_aAl_eEr_5_car_aggr3.0" depart="19068.51" from="lane_entry_A" to="lane_exit_D" type="car_aggr3" /><trip id="r_ers_alt_1_5_car_aggr2.0" depart="19077.02" from="lane_entry_D" to="lane_exit_B" type="car_aggr2" /><trip id="r_axs_tun_aAl_eEr_5_small_truck.0" depart="19099.73" from="lane_entry_A" to="lane_exit_D" type="small_truck" /><trip id="r_alt_round4_5_car_aggr2.0" depart="19107.64" from="lane_entry_B" to="lane_exit_B" type="car_aggr2" /><trip id="r_axs_tun_aAl_eEr_5_car_aggr4.0" depart="19219.49" from="lane_entry_A" to="lane_exit_D" type="car_aggr4" /><trip id="r_ers_alt_1_5_motorbike.0" depart="19313.88" from="lane_entry_D" to="lane_exit_B" type="motorbike" /><trip id="r_ers_alt_1_5_car_aggr3.2" depart="19368.56" from="lane_entry_D" to="lane_exit_B" type="car_aggr3" /><trip id="r_axs_tun_aAl_eEr_5_car_aggr1.0" depart="19390.55" from="lane_entry_A" to="lane_exit_D" type="car_aggr1" /><trip id="r_ers_alt_1_5_car_aggr3.3" depart="19425.07" from="lane_entry_D" to="lane_exit_B" type="car_aggr3" /><trip id="r_ers_alt_1_5_car_aggr2.1" depart="19581.84" from="lane_entry_D" to="lane_exit_B" type="car_aggr2" /><trip id="r_and_alt_1_4_car_aggr4.0" depart="19724.64" from="lane_entry_D" to="lane_exit_B" type="car_aggr4" /><trip id="r_ers_alt_1_5_car_aggr4.2" depart="19845.32" from="lane_entry_D" to="lane_exit_B" type="car_aggr4" /><trip id="r_axs_tun_aAl_eEr_5_car_aggr4.1" depart="19847.73" from="lane_entry_A" to="lane_exit_D" type="car_aggr4" /><trip id="r_alt_round3_5_car_aggr3.0" depart="19967.92" from="lane_entry_B" to="lane_exit_B" type="car_aggr3" /><trip id="r_alt_round3_5_car_aggr2.0" depart="20073.91" from="lane_entry_B" to="lane_exit_B" type="car_aggr2" /><trip id="r_alt_round4_5_car_aggr3.0" depart="20107.08" from="lane_entry_B" to="lane_exit_B" type="car_aggr3" /><trip id="r_alt_round4_5_car_aggr3.1" depart="20130.11" from="lane_entry_B" to="lane_exit_B" type="car_aggr3" /><trip id="r_ers_alt_1_5_car_aggr3.4" depart="20259.62" from="lane_entry_D" to="lane_exit_B" type="car_aggr3" /><trip id="r_ers_alt_1_5_car_aggr4.3" depart="20294.38" from="lane_entry_D" to="lane_exit_B" type="car_aggr4" /><trip id="r_alt_round3_5_small_truck.0" depart="20416.93" from="lane_entry_B" to="lane_exit_B" type="small_truck" /><trip id="r_axs_tun_aAl_eEr_5_car_aggr4.2" depart="20438.62" from="lane_entry_A" to="lane_exit_D" type="car_aggr4" /><trip id="r_axs_tun_aAl_eEr_5_small_truck.1" depart="20461.92" from="lane_entry_A" to="lane_exit_D" type="small_truck" /><trip id="r_ers_alt_1_5_car_aggr3.5" depart="20471.2" from="lane_entry_D" to="lane_exit_B" type="car_aggr3" /><trip id="r_axs_tun_aAl_eEr_5_car_aggr3.1" depart="20496.54" from="lane_entry_A" to="lane_exit_D" type="car_aggr3" /><trip id="r_axs_tun_aAl_eEr_5_car_aggr5.0" depart="20499.83" from="lane_entry_A" to="lane_exit_D" type="car_aggr5" /><trip id="r_ers_alt_1_5_car_aggr2.2" depart="20523.21" from="lane_entry_D" to="lane_exit_B" type="car_aggr2" /><trip id="r_ers_alt_1_5_small_truck.1" depart="20618.65" from="lane_entry_D" to="lane_exit_B" type="small_truck" /><trip id="r_axs_tun_aAl_eEr_5_car_aggr3.2" depart="20688.58" from="lane_entry_A" to="lane_exit_D" type="car_aggr3" /><trip id="r_axs_tun_aAl_eEr_5_car_aggr4.3" depart="20692.86" from="lane_entry_A" to="lane_exit_D" type="car_aggr4" /><trip id="r_ers_alt_1_5_small_truck.2" depart="20717.03" from="lane_entry_D" to="lane_exit_B" type="small_truck" /><trip id="r_alt_round3_5_car_aggr5.0" depart="20738.26" from="lane_entry_B" to="lane_exit_B" type="car_aggr5" /><trip id="r_alt_round6_5_car_aggr4.0" depart="20841.92" from="lane_entry_A" to="lane_exit_B" type="car_aggr4" /><trip id="r_axs_tun_aAl_eEr_5_car_aggr2.0" depart="20931.97" from="lane_entry_A" to="lane_exit_D" type="car_aggr2" /><trip id="r_alt_round3_5_car_aggr4.1" depart="20992.9" from="lane_entry_B" to="lane_exit_B" type="car_aggr4" /><trip id="r_alt_round4_5_small_truck.0" depart="21215.11" from="lane_entry_B" to="lane_exit_B" type="small_truck" /><trip id="r_ers_alt_1_5_car_aggr5.0" depart="21319.29" from="lane_entry_D" to="lane_exit_B" type="car_aggr5" /><trip id="r_ers_alt_1_5_car_aggr4.4" depart="21547.5" from="lane_entry_D" to="lane_exit_B" type="car_aggr4" /><trip id="r_ers_alt_1_5_car_aggr4.5" depart="21563.86" from="lane_entry_D" to="lane_exit_B" type="car_aggr4" /><trip id="r_alt_round3_5_car_aggr3.1" depart="21591.96" from="lane_entry_B" to="lane_exit_B" type="car_aggr3" /><trip id="r_alt_round4_5_car_aggr4.0" depart="21690.59" from="lane_entry_B" to="lane_exit_B" type="car_aggr4" /><trip id="r_ers_alt_1_5_car_aggr2.3" depart="21722.11" from="lane_entry_D" to="lane_exit_B" type="car_aggr2" /><trip id="r_alt_round4_5_small_truck.1" depart="21749.83" from="lane_entry_B" to="lane_exit_B" type="small_truck" /><trip id="r_ers_alt_1_5_car_aggr3.6" depart="21751.42" from="lane_entry_D" to="lane_exit_B" type="car_aggr3" /><trip id="r_alt_round4_6_car_aggr3.0" depart="21775.65" from="lane_entry_B" to="lane_exit_B" type="car_aggr3" /><trip id="r_ers_alt_1_5_car_aggr4.6" depart="21784.07" from="lane_entry_D" to="lane_exit_B" type="car_aggr4" /><trip id="r_alt_round4_6_car_aggr4.0" depart="21839.0" from="lane_entry_B" to="lane_exit_B" type="car_aggr4" /><trip id="r_ers_alt_1_6_motorbike.0" depart="21846.15" from="lane_entry_D" to="lane_exit_B" type="motorbike" /><trip id="r_alt_round3_6_motorbike.0" depart="21856.38" from="lane_entry_B" to="lane_exit_B" type="motorbike" /><trip id="r_alt_and_1_6_car_aggr3.0" depart="21860.83" from="lane_entry_B" to="lane_exit_D" type="car_aggr3" /><trip id="r_alt_round3_6_car_aggr4.0" depart="21864.69" from="lane_entry_B" to="lane_exit_B" type="car_aggr4" /><trip id="r_ers_alt_1_6_car_aggr3.0" depart="21875.72" from="lane_entry_D" to="lane_exit_B" type="car_aggr3" /><trip id="r_alt_round3_6_car_aggr3.0" depart="21939.6" from="lane_entry_B" to="lane_exit_B" type="car_aggr3" /><trip id="r_axs_tun_aAl_eEr_5_car_aggr3.3" depart="21955.09" from="lane_entry_A" to="lane_exit_D" type="car_aggr3" /><trip id="r_alt_round3_6_car_aggr5.0" depart="21985.61" from="lane_entry_B" to="lane_exit_B" type="car_aggr5" /><trip id="r_ers_alt_1_6_car_aggr2.0" depart="21999.51" from="lane_entry_D" to="lane_exit_B" type="car_aggr2" /><trip id="r_ers_alt_1_6_car_aggr2.1" depart="22004.93" from="lane_entry_D" to="lane_exit_B" type="car_aggr2" /><trip id="r_alt_round4_6_car_aggr5.0" depart="22005.58" from="lane_entry_B" to="lane_exit_B" type="car_aggr5" /><trip id="r_ers_alt_1_6_car_aggr3.1" depart="22009.31" from="lane_entry_D" to="lane_exit_B" type="car_aggr3" /><trip id="r_ers_alt_1_6_car_aggr5.0" depart="22081.75" from="lane_entry_D" to="lane_exit_B" type="car_aggr5" /><trip id="r_alt_round3_6_car_aggr1.0" depart="22149.03" from="lane_entry_B" to="lane_exit_B" type="car_aggr1" /><trip id="r_alt_round_5_6_car_aggr2.0" depart="22183.72" from="lane_entry_B" to="lane_exit_A" type="car_aggr2" /><trip id="r_alt_round4_6_car_aggr1.0" depart="22231.96" from="lane_entry_B" to="lane_exit_B" type="car_aggr1" /><trip id="r_alt_round3_6_car_aggr2.0" depart="22259.53" from="lane_entry_B" to="lane_exit_B" type="car_aggr2" /><trip id="r_alt_round3_6_car_aggr3.1" depart="22291.83" from="lane_entry_B" to="lane_exit_B" type="car_aggr3" /><trip id="r_alt_round3_6_car_aggr3.2" depart="22302.86" from="lane_entry_B" to="lane_exit_B" type="car_aggr3" /><trip id="r_alt_round4_6_car_aggr3.1" depart="22340.52" from="lane_entry_B" to="lane_exit_B" type="car_aggr3" /><trip id="r_axs_tun_aAl_eEr_5_car_aggr4.4" depart="22350.66" from="lane_entry_A" to="lane_exit_D" type="car_aggr4" /><trip id="r_alt_round3_6_car_aggr4.1" depart="22383.11" from="lane_entry_B" to="lane_exit_B" type="car_aggr4" /><trip id="r_axs_tun_aAl_eEr_5_car_aggr2.1" depart="22510.35" from="lane_entry_A" to="lane_exit_D" type="car_aggr2" /><trip id="r_ers_alt_1_6_car_aggr2.2" depart="22515.03" from="lane_entry_D" to="lane_exit_B" type="car_aggr2" /><trip id="r_ers_alt_1_6_car_aggr3.2" depart="22519.24" from="lane_entry_D" to="lane_exit_B" type="car_aggr3" /><trip id="r_axs_tun_aAl_eEr_6_car_aggr4.0" depart="22603.56" from="lane_entry_A" to="lane_exit_D" type="car_aggr4" /><trip id="r_ers_alt_1_6_big_truck.0" depart="22630.43" from="lane_entry_D" to="lane_exit_B" type="big_truck" /><trip id="r_ers_alt_1_6_car_aggr3.3" depart="22635.13" from="lane_entry_D" to="lane_exit_B" type="car_aggr3" /><trip id="r_ers_alt_1_6_car_aggr4.0" depart="22662.4" from="lane_entry_D" to="lane_exit_B" type="car_aggr4" /><trip id="r_alt_and_1_6_big_truck.0" depart="22672.12" from="lane_entry_B" to="lane_exit_D" type="big_truck" /><trip id="r_alt_round3_6_car_aggr4.2" depart="22677.09" from="lane_entry_B" to="lane_exit_B" type="car_aggr4" /><trip id="r_alt_round4_6_small_truck.0" depart="22713.65" from="lane_entry_B" to="lane_exit_B" type="small_truck" /><trip id="r_axs_tun_aAl_eEr_6_big_truck.0" depart="22726.83" from="lane_entry_A" to="lane_exit_D" type="big_truck" /><trip id="r_axs_tun_aAl_eEr_6_small_truck.0" depart="22731.0" from="lane_entry_A" to="lane_exit_D" type="small_truck" /><trip id="r_alt_round4_6_car_aggr1.1" depart="22743.63" from="lane_entry_B" to="lane_exit_B" type="car_aggr1" /><trip id="r_axs_tun_aAl_eEr_6_car_aggr4.1" depart="22752.63" from="lane_entry_A" to="lane_exit_D" type="car_aggr4" /><trip id="r_luz_tun_aAl_eEr_6_car_aggr3.0" depart="22778.01" from="lane_entry_A" to="lane_exit_D" type="car_aggr3" /><trip id="r_ers_alt_1_6_car_aggr4.1" depart="22814.58" from="lane_entry_D" to="lane_exit_B" type="car_aggr4" /><trip id="r_alt_round4_6_car_aggr2.0" depart="22868.85" from="lane_entry_B" to="lane_exit_B" type="car_aggr2" /><trip id="r_axs_tun_aAl_eEr_6_car_aggr3.0" depart="22888.67" from="lane_entry_A" to="lane_exit_D" type="car_aggr3" /><trip id="r_alt_round3_6_car_aggr5.1" depart="22904.28" from="lane_entry_B" to="lane_exit_B" type="car_aggr5" /><trip id="r_luz_tun_aAl_eEr_6_car_aggr4.0" depart="22916.36" from="lane_entry_A" to="lane_exit_D" type="car_aggr4" /><trip id="r_ers_alt_1_6_car_aggr4.2" depart="22925.54" from="lane_entry_D" to="lane_exit_B" type="car_aggr4" /><trip id="r_alt_round4_6_small_truck.1" depart="22990.38" from="lane_entry_B" to="lane_exit_B" type="small_truck" /><trip id="r_alt_round3_6_small_truck.0" depart="23000.41" from="lane_entry_B" to="lane_exit_B" type="small_truck" /><trip id="r_luz_tun_aAl_eEr_6_car_aggr3.1" depart="23003.85" from="lane_entry_A" to="lane_exit_D" type="car_aggr3" /><trip id="r_ers_alt_1_6_car_aggr3.4" depart="23003.92" from="lane_entry_D" to="lane_exit_B" type="car_aggr3" /><trip id="r_ers_alt_1_6_big_truck.1" depart="23034.91" from="lane_entry_D" to="lane_exit_B" type="big_truck" /><trip id="r_alt_and_1_6_car_aggr4.0" depart="23056.07" from="lane_entry_B" to="lane_exit_D" type="car_aggr4" /><trip id="r_ers_alt_1_6_car_aggr2.3" depart="23074.66" from="lane_entry_D" to="lane_exit_B" type="car_aggr2" /><trip id="r_ers_alt_1_6_car_aggr5.1" depart="23085.57" from="lane_entry_D" to="lane_exit_B" type="car_aggr5" /><trip id="r_ers_alt_1_6_car_aggr5.2" depart="23150.72" from="lane_entry_D" to="lane_exit_B" type="car_aggr5" /><trip id="r_alt_round4_6_car_aggr3.2" depart="23169.48" from="lane_entry_B" to="lane_exit_B" type="car_aggr3" /><trip id="r_luz_tun_aAl_eEr_6_car_aggr4.1" depart="23177.39" from="lane_entry_A" to="lane_exit_D" type="car_aggr4" /><trip id="r_alt_round3_6_car_aggr2.1" depart="23234.4" from="lane_entry_B" to="lane_exit_B" type="car_aggr2" /><trip id="r_alt_and_1_6_small_truck.0" depart="23238.21" from="lane_entry_B" to="lane_exit_D" type="small_truck" /><trip id="r_ers_alt_1_6_car_aggr3.5" depart="23280.83" from="lane_entry_D" to="lane_exit_B" type="car_aggr3" /><trip id="r_alt_round3_6_small_truck.1" depart="23311.38" from="lane_entry_B" to="lane_exit_B" type="small_truck" /><trip id="r_alt_round3_6_car_aggr3.3" depart="23316.28" from="lane_entry_B" to="lane_exit_B" type="car_aggr3" /><trip id="r_ers_alt_1_6_car_aggr2.4" depart="23356.81" from="lane_entry_D" to="lane_exit_B" type="car_aggr2" /><trip id="r_axs_tun_aAl_eEr_6_car_aggr3.1" depart="23358.86" from="lane_entry_A" to="lane_exit_D" type="car_aggr3" /><trip id="r_alt_round3_6_car_aggr4.3" depart="23367.99" from="lane_entry_B" to="lane_exit_B" type="car_aggr4" /><trip id="r_ers_alt_1_6_car_aggr2.5" depart="23415.88" from="lane_entry_D" to="lane_exit_B" type="car_aggr2" /><trip id="r_ers_alt_1_6_car_aggr2.6" depart="23424.35" from="lane_entry_D" to="lane_exit_B" type="car_aggr2" /><trip id="r_alt_round3_6_car_aggr2.2" depart="23476.33" from="lane_entry_B" to="lane_exit_B" type="car_aggr2" /><trip id="r_ers_alt_1_6_car_aggr3.6" depart="23518.87" from="lane_entry_D" to="lane_exit_B" type="car_aggr3" /><trip id="r_ers_alt_1_6_motorbike.1" depart="23555.36" from="lane_entry_D" to="lane_exit_B" type="motorbike" /><trip id="r_luz_tun_aAl_eEr_6_car_aggr3.2" depart="23556.85" from="lane_entry_A" to="lane_exit_D" type="car_aggr3" /><trip id="r_luz_tun_aAl_eEr_6_car_aggr3.3" depart="23561.35" from="lane_entry_A" to="lane_exit_D" type="car_aggr3" /><trip id="r_alt_round3_6_big_truck.0" depart="23579.56" from="lane_entry_B" to="lane_exit_B" type="big_truck" /><trip id="r_ers_alt_1_6_car_aggr3.7" depart="23594.01" from="lane_entry_D" to="lane_exit_B" type="car_aggr3" /><trip id="r_ers_alt_1_6_car_aggr4.3" depart="23597.7" from="lane_entry_D" to="lane_exit_B" type="car_aggr4" /><trip id="r_alt_round4_6_car_aggr2.1" depart="23654.82" from="lane_entry_B" to="lane_exit_B" type="car_aggr2" /><trip id="r_axs_tun_aAl_eEr_6_car_aggr3.2" depart="23676.31" from="lane_entry_A" to="lane_exit_D" type="car_aggr3" /><trip id="r_ers_alt_1_6_car_aggr2.7" depart="23681.95" from="lane_entry_D" to="lane_exit_B" type="car_aggr2" /><trip id="r_ers_alt_1_6_car_aggr3.8" depart="23686.3" from="lane_entry_D" to="lane_exit_B" type="car_aggr3" /><trip id="r_axs_tun_aAl_eEr_6_car_aggr3.3" depart="23689.04" from="lane_entry_A" to="lane_exit_D" type="car_aggr3" /><trip id="r_ers_alt_1_6_car_aggr4.4" depart="23690.07" from="lane_entry_D" to="lane_exit_B" type="car_aggr4" /><trip id="r_alt_round_5_6_car_aggr4.0" depart="23703.58" from="lane_entry_B" to="lane_exit_A" type="car_aggr4" /><trip id="r_and_alt_1_6_car_aggr2.0" depart="23705.79" from="lane_entry_D" to="lane_exit_B" type="car_aggr2" /><trip id="r_alt_round3_6_small_truck.2" depart="23712.48" from="lane_entry_B" to="lane_exit_B" type="small_truck" /><trip id="r_alt_round3_6_car_aggr4.4" depart="23716.78" from="lane_entry_B" to="lane_exit_B" type="car_aggr4" /><trip id="r_luz_tun_aAl_eEr_6_car_aggr2.0" depart="23722.48" from="lane_entry_A" to="lane_exit_D" type="car_aggr2" /><trip id="r_ers_alt_1_6_car_aggr3.9" depart="23743.25" from="lane_entry_D" to="lane_exit_B" type="car_aggr3" /><trip id="r_alt_round4_6_car_aggr3.3" depart="23743.78" from="lane_entry_B" to="lane_exit_B" type="car_aggr3" /><trip id="r_axs_tun_aAl_eEr_6_big_truck.1" depart="23769.31" from="lane_entry_A" to="lane_exit_D" type="big_truck" /><trip id="r_alt_round3_6_car_aggr4.5" depart="23792.6" from="lane_entry_B" to="lane_exit_B" type="car_aggr4" /><trip id="r_axs_tun_aAl_eEr_6_car_aggr1.0" depart="23806.56" from="lane_entry_A" to="lane_exit_D" type="car_aggr1" /><trip id="r_luz_tun_aAl_eEr_6_car_aggr1.0" depart="23813.58" from="lane_entry_A" to="lane_exit_D" type="car_aggr1" /><trip id="r_axs_tun_aAl_eEr_6_small_truck.1" depart="23817.23" from="lane_entry_A" to="lane_exit_D" type="small_truck" /><trip id="r_luz_tun_aAl_eEr_6_car_aggr4.2" depart="23821.29" from="lane_entry_A" to="lane_exit_D" type="car_aggr4" /><trip id="r_axs_tun_aAl_eEr_6_car_aggr5.0" depart="23860.18" from="lane_entry_A" to="lane_exit_D" type="car_aggr5" /><trip id="r_ers_alt_1_6_big_truck.2" depart="23860.93" from="lane_entry_D" to="lane_exit_B" type="big_truck" /><trip id="r_ers_alt_1_6_car_aggr1.0" depart="23867.31" from="lane_entry_D" to="lane_exit_B" type="car_aggr1" /><trip id="r_alt_round4_6_car_aggr3.4" depart="23879.59" from="lane_entry_B" to="lane_exit_B" type="car_aggr3" /><trip id="r_alt_round4_6_car_aggr2.2" depart="23885.49" from="lane_entry_B" to="lane_exit_B" type="car_aggr2" /><trip id="r_axs_tun_aAl_eEr_6_car_aggr1.1" depart="23913.24" from="lane_entry_A" to="lane_exit_D" type="car_aggr1" /><trip id="r_alt_round3_6_car_aggr4.6" depart="23914.46" from="lane_entry_B" to="lane_exit_B" type="car_aggr4" /><trip id="r_axs_tun_aAl_eEr_6_car_aggr4.2" depart="23932.18" from="lane_entry_A" to="lane_exit_D" type="car_aggr4" /><trip id="r_ers_alt_1_6_car_aggr1.1" depart="23933.5" from="lane_entry_D" to="lane_exit_B" type="car_aggr1" /><trip id="r_ers_alt_1_6_car_aggr3.10" depart="23937.77" from="lane_entry_D" to="lane_exit_B" type="car_aggr3" /><trip id="r_alt_round4_6_car_aggr4.1" depart="23989.92" from="lane_entry_B" to="lane_exit_B" type="car_aggr4" /><trip id="r_ers_alt_1_6_car_aggr2.8" depart="24067.78" from="lane_entry_D" to="lane_exit_B" type="car_aggr2" /><trip id="r_ers_alt_1_6_car_aggr5.3" depart="24070.92" from="lane_entry_D" to="lane_exit_B" type="car_aggr5" /><trip id="r_and_alt_1_6_car_aggr3.0" depart="24107.48" from="lane_entry_D" to="lane_exit_B" type="car_aggr3" /><trip id="r_ers_alt_1_6_car_aggr3.11" depart="24111.58" from="lane_entry_D" to="lane_exit_B" type="car_aggr3" /><trip id="r_and_alt_1_6_car_aggr3.1" depart="24241.02" from="lane_entry_D" to="lane_exit_B" type="car_aggr3" /><trip id="r_alt_round3_6_car_aggr2.3" depart="24243.47" from="lane_entry_B" to="lane_exit_B" type="car_aggr2" /><trip id="r_alt_round4_6_car_aggr3.5" depart="24262.55" from="lane_entry_B" to="lane_exit_B" type="car_aggr3" /><trip id="r_luz_tun_aAl_eEr_6_big_truck.0" depart="24275.16" from="lane_entry_A" to="lane_exit_D" type="big_truck" /><trip id="r_luz_tun_aAl_eEr_6_car_aggr4.3" depart="24279.79" from="lane_entry_A" to="lane_exit_D" type="car_aggr4" /><trip id="r_ers_alt_1_6_car_aggr1.2" depart="24298.63" from="lane_entry_D" to="lane_exit_B" type="car_aggr1" /><trip id="r_ers_alt_1_6_car_aggr3.12" depart="24339.4" from="lane_entry_D" to="lane_exit_B" type="car_aggr3" /><trip id="r_ers_alt_1_6_car_aggr3.13" depart="24352.49" from="lane_entry_D" to="lane_exit_B" type="car_aggr3" /><trip id="r_ers_alt_1_6_car_aggr3.14" depart="24356.68" from="lane_entry_D" to="lane_exit_B" type="car_aggr3" /><trip id="r_ers_alt_1_6_car_aggr5.4" depart="24360.13" from="lane_entry_D" to="lane_exit_B" type="car_aggr5" /><trip id="r_alt_round4_6_car_aggr2.3" depart="24405.15" from="lane_entry_B" to="lane_exit_B" type="car_aggr2" /><trip id="r_axs_tun_aAl_eEr_6_small_truck.2" depart="24411.46" from="lane_entry_A" to="lane_exit_D" type="small_truck" /><trip id="r_ers_alt_1_6_car_aggr3.15" depart="24456.22" from="lane_entry_D" to="lane_exit_B" type="car_aggr3" /><trip id="r_ers_alt_1_6_car_aggr3.16" depart="24460.26" from="lane_entry_D" to="lane_exit_B" type="car_aggr3" /><trip id="r_ers_alt_1_6_car_aggr3.17" depart="24522.28" from="lane_entry_D" to="lane_exit_B" type="car_aggr3" /><trip id="r_alt_round3_6_small_truck.3" depart="24523.67" from="lane_entry_B" to="lane_exit_B" type="small_truck" /><trip id="r_alt_round3_6_car_aggr5.2" depart="24527.14" from="lane_entry_B" to="lane_exit_B" type="car_aggr5" /><trip id="r_ers_alt_1_6_car_aggr3.18" depart="24564.42" from="lane_entry_D" to="lane_exit_B" type="car_aggr3" /><trip id="r_ers_alt_1_6_car_aggr1.3" depart="24586.53" from="lane_entry_D" to="lane_exit_B" type="car_aggr1" /><trip id="r_alt_round4_6_motorbike.0" depart="24605.85" from="lane_entry_B" to="lane_exit_B" type="motorbike" /><trip id="r_axs_tun_aAl_eEr_6_car_aggr3.4" depart="24621.21" from="lane_entry_A" to="lane_exit_D" type="car_aggr3" /><trip id="r_axs_tun_aAl_eEr_6_car_aggr2.0" depart="24626.96" from="lane_entry_A" to="lane_exit_D" type="car_aggr2" /><trip id="r_axs_tun_aAl_eEr_6_car_aggr3.5" depart="24631.49" from="lane_entry_A" to="lane_exit_D" type="car_aggr3" /><trip id="r_alt_round3_6_big_truck.1" depart="24637.19" from="lane_entry_B" to="lane_exit_B" type="big_truck" /><trip id="r_alt_and_1_6_car_aggr3.1" depart="24642.4" from="lane_entry_B" to="lane_exit_D" type="car_aggr3" /><trip id="r_ers_alt_1_6_car_aggr3.19" depart="24672.09" from="lane_entry_D" to="lane_exit_B" type="car_aggr3" /><trip id="r_alt_and_1_6_small_truck.1" depart="24680.12" from="lane_entry_B" to="lane_exit_D" type="small_truck" /><trip id="r_axs_tun_aAl_eEr_6_car_aggr5.1" depart="24710.24" from="lane_entry_A" to="lane_exit_D" type="car_aggr5" /><trip id="r_ers_alt_1_6_car_aggr2.9" depart="24713.63" from="lane_entry_D" to="lane_exit_B" type="car_aggr2" /><trip id="r_ers_alt_1_6_small_truck.0" depart="24763.86" from="lane_entry_D" to="lane_exit_B" type="small_truck" /><trip id="r_axs_tun_aAl_eEr_6_car_aggr3.6" depart="24776.87" from="lane_entry_A" to="lane_exit_D" type="car_aggr3" /><trip id="r_luz_tun_aAl_eEr_6_car_aggr3.4" depart="24784.52" from="lane_entry_A" to="lane_exit_D" type="car_aggr3" /><trip id="r_alt_round3_6_car_aggr4.7" depart="24788.47" from="lane_entry_B" to="lane_exit_B" type="car_aggr4" /><trip id="r_axs_tun_aAl_eEr_6_car_aggr4.3" depart="24820.41" from="lane_entry_A" to="lane_exit_D" type="car_aggr4" /><trip id="r_ers_alt_1_6_car_aggr2.10" depart="24835.19" from="lane_entry_D" to="lane_exit_B" type="car_aggr2" /><trip id="r_ers_alt_1_6_car_aggr4.5" depart="24851.88" from="lane_entry_D" to="lane_exit_B" type="car_aggr4" /><trip id="r_alt_round3_6_car_aggr3.4" depart="24863.94" from="lane_entry_B" to="lane_exit_B" type="car_aggr3" /><trip id="r_alt_round3_6_car_aggr2.4" depart="25034.32" from="lane_entry_B" to="lane_exit_B" type="car_aggr2" /><trip id="r_axs_tun_aAl_eEr_6_big_truck.2" depart="25040.58" from="lane_entry_A" to="lane_exit_D" type="big_truck" /><trip id="r_axs_tun_aAl_eEr_6_car_aggr3.7" depart="25046.8" from="lane_entry_A" to="lane_exit_D" type="car_aggr3" /><trip id="r_ers_alt_1_6_car_aggr2.11" depart="25087.28" from="lane_entry_D" to="lane_exit_B" type="car_aggr2" /><trip id="r_ers_alt_1_6_car_aggr2.12" depart="25092.69" from="lane_entry_D" to="lane_exit_B" type="car_aggr2" /><trip id="r_ers_alt_1_6_car_aggr4.6" depart="25096.45" from="lane_entry_D" to="lane_exit_B" type="car_aggr4" /><trip id="r_ers_alt_1_6_big_truck.3" depart="25123.68" from="lane_entry_D" to="lane_exit_B" type="big_truck" /><trip id="r_ers_alt_1_6_car_aggr4.7" depart="25127.78" from="lane_entry_D" to="lane_exit_B" type="car_aggr4" /><trip id="r_ers_alt_1_6_car_aggr5.5" depart="25131.03" from="lane_entry_D" to="lane_exit_B" type="car_aggr5" /><trip id="r_alt_round3_6_car_aggr4.8" depart="25154.5" from="lane_entry_B" to="lane_exit_B" type="car_aggr4" /><trip id="r_and_alt_1_6_car_aggr3.2" depart="25240.05" from="lane_entry_D" to="lane_exit_B" type="car_aggr3" /><trip id="r_axs_tun_aAl_eEr_6_car_aggr3.8" depart="25243.27" from="lane_entry_A" to="lane_exit_D" type="car_aggr3" /><trip id="r_alt_round4_6_car_aggr1.2" depart="25249.45" from="lane_entry_B" to="lane_exit_B" type="car_aggr1" /><trip id="r_ers_alt_1_6_car_aggr1.4" depart="25253.48" from="lane_entry_D" to="lane_exit_B" type="car_aggr1" /><trip id="r_axs_tun_aAl_eEr_6_car_aggr2.1" depart="25280.68" from="lane_entry_A" to="lane_exit_D" type="car_aggr2" /><trip id="r_alt_round6_7_car_aggr3.0" depart="25320.32" from="lane_entry_A" to="lane_exit_B" type="car_aggr3" /><trip id="r_ers_alt_1_6_car_aggr4.8" depart="25355.19" from="lane_entry_D" to="lane_exit_B" type="car_aggr4" /><trip id="r_ers_alt_1_6_car_aggr3.20" depart="25359.76" from="lane_entry_D" to="lane_exit_B" type="car_aggr3