<?xml version='1.0' encoding='utf-8'?>
<trips><trip id="r_axs_tun_aEr_eGo_1_car_aggr4.0" depart="5691.26" from="lane_entry_C" to="lane_exit_B" type="car_aggr4" /><trip id="r_luz_tun_aAm_eGo_1_car_aggr3.0" depart="7977.39" from="lane_entry_C" to="lane_exit_B" type="car_aggr3" /><trip id="r_luz_tun_aAm_eGo_1_big_truck.0" depart="8203.64" from="lane_entry_C" to="lane_exit_B" type="big_truck" /><trip id="r_and_alt_1_2_car_aggr4.0" depart="9030.56" from="lane_entry_E" to="lane_exit_C" type="car_aggr4" /><trip id="r_axs_tun_aEr_eGo_1_car_aggr3.0" depart="9103.28" from="lane_entry_C" to="lane_exit_B" type="car_aggr3" /><trip id="r_axs_tun_aEr_eGo_1_small_truck.0" depart="9372.41" from="lane_entry_C" to="lane_exit_B" type="small_truck" /><trip id="r_tun_axs_KS_____3_car_aggr2.0" depart="12507.28" from="lane_entry_B" to="lane_exit_C" type="car_aggr2" /><trip id="r_tun_axs_KS_____3_car_aggr3.0" depart="12941.04" from="lane_entry_B" to="lane_exit_C" type="car_aggr3" /><trip id="r_tun_axs_KS_____3_car_aggr3.1" depart="13821.49" from="lane_entry_B" to="lane_exit_C" type="car_aggr3" /><trip id="r_tun_axs_KS_____3_car_aggr3.2" depart="14110.61" from="lane_entry_B" to="lane_exit_C" type="car_aggr3" /><trip id="r_and_alt_1_4_car_aggr3.0" depart="16637.77" from="lane_entry_E" to="lane_exit_C" type="car_aggr3" /><trip id="r_and_alt_1_4_car_aggr4.0" depart="18198.34" from="lane_entry_E" to="lane_exit_C" type="car_aggr4" /><trip id="r_and_alt_1_6_car_aggr2.0" depart="22153.03" from="lane_entry_E" to="lane_exit_C" type="car_aggr2" /><trip id="r_and_alt_1_6_car_aggr3.0" depart="22383.82" from="lane_entry_E" to="lane_exit_C" type="car_aggr3" /><trip id="r_and_alt_1_6_car_aggr3.1" depart="22471.87" from="lane_entry_E" to="lane_exit_C" type="car_aggr3" /><trip id="r_and_alt_1_6_car_aggr3.2" depart="23498.98" from="lane_entry_E" to="lane_exit_C" type="car_aggr3" /><trip id="r_alt_and_1_6_car_aggr3.0" depart="23619.59" from="lane_entry_C" to="lane_exit_E" type="car_aggr3" /><trip id="r_and_alt_1_6_small_truck.0" depart="24077.37" from="lane_entry_E" to="lane_exit_C" type="small_truck" /><trip id="r_and_alt_1_6_car_aggr4.0" depart="24384.97" from="lane_entry_E" to="lane_exit_C" type="car_aggr4" /><trip id="r_and_alt_1_6_car_aggr2.1" depart="24508.15" from="lane_entry_E" to="lane_exit_C" type="car_aggr2" /><trip id="r_and_alt_1_6_car_aggr5.0" depart="24783.04" from="lane_entry_E" to="lane_exit_C" type="car_aggr5" /><trip id="r_alt_and_1_6_big_truck.0" depart="24859.21" from="lane_entry_C" to="lane_exit_E" type="big_truck" /><trip id="r_alt_and_1_6_car_aggr4.0" depart="25008.89" from="lane_entry_C" to="lane_exit_E" type="car_aggr4" /><trip id="r_alt_and_1_6_small_truck.0" depart="25044.56" from="lane_entry_C" to="lane_exit_E" type="small_truck" /><trip id="r_and_alt_1_7_car_aggr3.0" depart="25862.84" from="lane_entry_E" to="lane_exit_C" type="car_aggr3" /><trip id="r_and_alt_1_7_car_aggr2.0" depart="25915.25" from="lane_entry_E" to="lane_exit_C" type="car_aggr2" /><trip id="r_and_alt_1_7_car_aggr5.0" depart="25977.33" from="lane_entry_E" to="lane_exit_C" type="car_aggr5" /><trip id="r_alt_and_1_6_car_aggr3.1" depart="26102.88" from="lane_entry_C" to="lane_exit_E" type="car_aggr3" /><trip id="r_and_alt_1_7_big_truck.0" depart="26235.16" from="lane_entry_E" to="lane_exit_C" type="big_truck" /><trip id="r_alt_and_1_6_small_truck.1" depart="26395.88" from="lane_entry_C" to="lane_exit_E" type="small_truck" /><trip id="r_and_alt_1_7_car_aggr1.0" depart="26405.53" from="lane_entry_E" to="lane_exit_C" type="car_aggr1" /><trip id="r_and_alt_1_7_big_truck.1" depart="26505.1" from="lane_entry_E" to="lane_exit_C" type="big_truck" /><trip id="r_and_alt_1_7_car_aggr1.1" depart="26644.97" from="lane_entry_E" to="lane_exit_C" type="car_aggr1" /><trip id="r_and_alt_1_7_car_aggr5.1" depart="26648.47" from="lane_entry_E" to="lane_exit_C" type="car_aggr5" /><trip id="r_and_alt_1_7_car_aggr3.1" depart="26656.97" from="lane_entry_E" to="lane_exit_C" type="car_aggr3" /><trip id="r_and_alt_1_7_car_aggr4.0" depart="26695.01" from="lane_entry_E" to="lane_exit_C" type="car_aggr4" /><trip id="r_and_alt_1_7_car_aggr5.2" depart="26808.18" from="lane_entry_E" to="lane_exit_C" type="car_aggr5" /><trip id="r_and_alt_1_7_car_aggr3.2" depart="26815.57" from="lane_entry_E" to="lane_exit_C" type="car_aggr3" /><trip id="r_and_alt_1_7_motorbike.0" depart="26844.06" from="lane_entry_E" to="lane_exit_C" type="motorbike" /><trip id="r_and_alt_1_7_car_aggr3.3" depart="26920.43" from="lane_entry_E" to="lane_exit_C" type="car_aggr3" /><trip id="r_and_alt_1_7_car_aggr1.2" depart="27015.34" from="lane_entry_E" to="lane_exit_C" type="car_aggr1" /><trip id="r_and_alt_1_7_car_aggr1.3" depart="27061.9" from="lane_entry_E" to="lane_exit_C" type="car_aggr1" /><trip id="r_and_alt_1_7_big_truck.2" depart="27140.17" from="lane_entry_E" to="lane_exit_C" type="big_truck" /><trip id="r_and_alt_1_7_motorbike.1" depart="27144.73" from="lane_entry_E" to="lane_exit_C" type="motorbike" /><trip id="r_and_alt_1_7_car_aggr5.3" depart="27147.79" from="lane_entry_E" to="lane_exit_C" type="car_aggr5" /><trip id="r_and_alt_1_7_motorbike.2" depart="27190.43" from="lane_entry_E" to="lane_exit_C" type="motorbike" /><trip id="r_and_alt_1_7_car_aggr3.4" depart="27198.0" from="lane_entry_E" to="lane_exit_C" type="car_aggr3" /><trip id="r_and_alt_1_7_car_aggr1.4" depart="27381.79" from="lane_entry_E" to="lane_exit_C" type="car_aggr1" /><trip id="r_and_alt_1_7_car_aggr1.5" depart="27472.65" from="lane_entry_E" to="lane_exit_C" type="car_aggr1" /><trip id="r_and_alt_1_7_car_aggr3.5" depart="27604.85" from="lane_entry_E" to="lane_exit_C" type="car_aggr3" /><trip id="r_and_alt_1_7_car_aggr1.6" depart="27721.1" from="lane_entry_E" to="lane_exit_C" type="car_aggr1" /><trip id="r_and_alt_1_7_car_aggr5.4" depart="27982.84" from="lane_entry_E" to="lane_exit_C" type="car_aggr5" /><trip id="r_and_alt_1_7_car_aggr5.5" depart="27986.47" from="lane_entry_E" to="lane_exit_C" type="car_aggr5" /><trip id="r_and_alt_1_7_car_aggr4.1" depart="27990.52" from="lane_entry_E" to="lane_exit_C" type="car_aggr4" /><trip id="r_luz_tun_aAm_eGo_7_car_aggr3.0" depart="28081.84" from="lane_entry_C" to="lane_exit_B" type="car_aggr3" /><trip id="r_and_alt_1_7_car_aggr1.7" depart="28182.57" from="lane_entry_E" to="lane_exit_C" type="car_aggr1" /><trip id="r_and_alt_1_7_car_aggr4.2" depart="28186.53" from="lane_entry_E" to="lane_exit_C" type="car_aggr4" /><trip id="r_luz_tun_aAm_eGo_7_car_aggr1.1" depart="28316.46" from="lane_entry_C" to="lane_exit_B" type="car_aggr1" /><trip id="r_and_alt_1_7_small_truck.0" depart="28344.09" from="lane_entry_E" to="lane_exit_C" type="small_truck" /><trip id="r_luz_tun_aAm_eGo_7_car_aggr1.0" depart="28484.45" from="lane_entry_C" to="lane_exit_B" type="car_aggr1" /><trip id="r_luz_tun_aAm_eGo_7_car_aggr3.1" depart="28488.64" from="lane_entry_C" to="lane_exit_B" type="car_aggr3" /><trip id="r_alt_and_1_7_car_aggr4.0" depart="28492.43" from="lane_entry_C" to="lane_exit_E" type="car_aggr4" /><trip id="r_luz_tun_aEr_eGo_7_car_aggr3.0" depart="28496.98" from="lane_entry_C" to="lane_exit_B" type="car_aggr3" /><trip id="r_and_alt_1_7_car_aggr4.3" depart="28619.47" from="lane_entry_E" to="lane_exit_C" type="car_aggr4" /><trip id="r_and_alt_1_7_car_aggr4.4" depart="28623.82" from="lane_entry_E" to="lane_exit_C" type="car_aggr4" /><trip id="r_and_alt_1_7_car_aggr3.6" depart="28648.36" from="lane_entry_E" to="lane_exit_C" type="car_aggr3" /><trip id="r_and_alt_1_7_car_aggr3.7" depart="28652.78" from="lane_entry_E" to="lane_exit_C" type="car_aggr3" /><trip id="r_and_alt_1_7_car_aggr5.6" depart="28685.1" from="lane_entry_E" to="lane_exit_C" type="car_aggr5" /><trip id="r_and_alt_1_7_car_aggr2.1" depart="28829.76" from="lane_entry_E" to="lane_exit_C" type="car_aggr2" /><trip id="r_luz_tun_aAm_eGo_7_car_aggr1.2" depart="28839.74" from="lane_entry_C" to="lane_exit_B" type="car_aggr1" /><trip id="r_luz_tun_aAm_eGo_7_car_aggr2.0" depart="28844.92" from="lane_entry_C" to="lane_exit_B" type="car_aggr2" /><trip id="r_alt_and_1_7_car_aggr1.0" depart="28853.44" from="lane_entry_C" to="lane_exit_E" type="car_aggr1" /><trip id="r_and_alt_1_8_car_aggr5.0" depart="29099.02" from="lane_entry_E" to="lane_exit_C" type="car_aggr5" /><trip id="r_luz_tun_aAm_eGo_7_small_truck.0" depart="29174.24" from="lane_entry_C" to="lane_exit_B" type="small_truck" /><trip id="r_luz_tun_aAm_eGo_7_car_aggr1.3" depart="29305.3" from="lane_entry_C" to="lane_exit_B" type="car_aggr1" /><trip id="r_luz_tun_aEr_eGo_7_car_aggr3.1" depart="29309.52" from="lane_entry_C" to="lane_exit_B" type="car_aggr3" /><trip id="r_and_alt_1_8_car_aggr4.0" depart="29650.42" from="lane_entry_E" to="lane_exit_C" type="car_aggr4" /><trip id="r_and_alt_1_8_car_aggr3.0" depart="29655.14" from="lane_entry_E" to="lane_exit_C" type="car_aggr3" /><trip id="r_and_alt_1_8_car_aggr3.1" depart="29660.64" from="lane_entry_E" to="lane_exit_C" type="car_aggr3" /><trip id="r_luz_tun_aAm_eGo_7_car_aggr2.1" depart="29739.79" from="lane_entry_C" to="lane_exit_B" type="car_aggr2" /><trip id="r_luz_tun_aEr_eGo_7_car_aggr2.0" depart="29745.06" from="lane_entry_C" to="lane_exit_B" type="car_aggr2" /><trip id="r_and_alt_1_8_big_truck.0" depart="29747.45" from="lane_entry_E" to="lane_exit_C" type="big_truck" /><trip id="r_luz_tun_aEr_eGo_7_small_truck.0" depart="29748.54" from="lane_entry_C" to="lane_exit_B" type="small_truck" /><trip id="r_luz_tun_aEr_eGo_7_small_truck.1" depart="29890.61" from="lane_entry_C" to="lane_exit_B" type="small_truck" /><trip id="r_luz_tun_aAm_eGo_7_car_aggr1.4" depart="29897.07" from="lane_entry_C" to="lane_exit_B" type="car_aggr1" /><trip id="r_luz_tun_aAm_eGo_7_big_truck.0" depart="29962.34" from="lane_entry_C" to="lane_exit_B" type="big_truck" /><trip id="r_luz_tun_aAm_eGo_7_car_aggr5.0" depart="29965.76" from="lane_entry_C" to="lane_exit_B" type="car_aggr5" /><trip id="r_luz_tun_aAm_eGo_7_small_truck.1" depart="30051.62" from="lane_entry_C" to="lane_exit_B" type="small_truck" /><trip id="r_luz_tun_aAm_eGo_7_car_aggr4.0" depart="30055.31" from="lane_entry_C" to="lane_exit_B" type="car_aggr4" /><trip id="r_and_alt_1_8_small_truck.0" depart="30057.16" from="lane_entry_E" to="lane_exit_C" type="small_truck" /><trip id="r_and_alt_1_8_car_aggr3.2" depart="30113.63" from="lane_entry_E" to="lane_exit_C" type="car_aggr3" /><trip id="r_and_alt_1_8_car_aggr5.1" depart="30264.28" from="lane_entry_E" to="lane_exit_C" type="car_aggr5" /><trip id="r_luz_tun_aEr_eGo_7_car_aggr5.0" depart="30354.53" from="lane_entry_C" to="lane_exit_B" type="car_aggr5" /><trip id="r_and_alt_1_8_car_aggr3.3" depart="30364.34" from="lane_entry_E" to="lane_exit_C" type="car_aggr3" /><trip id="r_and_alt_1_8_car_aggr3.4" depart="30533.11" from="lane_entry_E" to="lane_exit_C" type="car_aggr3" /><trip id="r_and_alt_1_8_big_truck.1" depart="30727.02" from="lane_entry_E" to="lane_exit_C" type="big_truck" /><trip id="r_and_alt_1_8_car_aggr1.0" depart="31139.76" from="lane_entry_E" to="lane_exit_C" type="car_aggr1" /><trip id="r_and_alt_1_8_car_aggr3.5" depart="31146.08" from="lane_entry_E" to="lane_exit_C" type="car_aggr3" /><trip id="r_and_alt_1_8_small_truck.1" depart="31151.36" from="lane_entry_E" to="lane_exit_C" type="small_truck" /><trip id="r_luz_tun_aEr_eGo_7_car_aggr5.1" depart="31168.93" from="lane_entry_C" to="lane_exit_B" type="car_aggr5" /><trip id="r_luz_tun_aEr_eGo_7_small_truck.2" depart="31173.47" from="lane_entry_C" to="lane_exit_B" type="small_truck" /><trip id="r_axs_tun_aAm_eGo_8_car_aggr3.0" depart="31177.67" from="lane_entry_C" to="lane_exit_B" type="car_aggr3" /><trip id="r_luz_tun_aEr_eGo_7_small_truck.3" depart="31346.67" from="lane_entry_C" to="lane_exit_B" type="small_truck" /><trip id="r_axs_tun_aEr_eGo_8_car_aggr5.0" depart="31349.86" from="lane_entry_C" to="lane_exit_B" type="car_aggr5" /><trip id="r_axs_tun_aAm_eGo_8_car_aggr4.0" depart="31353.8" from="lane_entry_C" to="lane_exit_B" type="car_aggr4" /><trip id="r_luz_tun_aAm_eGo_8_car_aggr5.0" depart="31356.86" from="lane_entry_C" to="lane_exit_B" type="car_aggr5" /><trip id="r_and_alt_1_8_car_aggr3.6" depart="31357.13" from="lane_entry_E" to="lane_exit_C" type="car_aggr3" /><trip id="r_and_alt_1_8_small_truck.2" depart="31482.74" from="lane_entry_E" to="lane_exit_C" type="small_truck" /><trip id="r_and_alt_1_8_car_aggr1.1" depart="31506.23" from="lane_entry_E" to="lane_exit_C" type="car_aggr1" /><trip id="r_luz_tun_aAm_eGo_8_small_truck.0" depart="31559.31" from="lane_entry_C" to="lane_exit_B" type="small_truck" /><trip id="r_luz_tun_aEr_eGo_8_car_aggr3.0" depart="31604.3" from="lane_entry_C" to="lane_exit_B" type="car_aggr3" /><trip id="r_axs_tun_aAm_eGo_8_car_aggr4.1" depart="31607.92" from="lane_entry_C" to="lane_exit_B" type="car_aggr4" /><trip id="r_and_alt_1_8_small_truck.3" depart="31611.23" from="lane_entry_E" to="lane_exit_C" type="small_truck" /><trip id="r_axs_tun_aAm_eGo_8_car_aggr3.1" depart="31763.67" from="lane_entry_C" to="lane_exit_B" type="car_aggr3" /><trip id="r_axs_tun_aAm_eGo_8_car_aggr3.2" depart="31767.78" from="lane_entry_C" to="lane_exit_B" type="car_aggr3" /><trip id="r_axs_tun_aEr_eGo_8_car_aggr3.0" depart="31771.85" from="lane_entry_C" to="lane_exit_B" type="car_aggr3" /><trip id="r_and_alt_1_8_car_aggr3.7" depart="31866.54" from="lane_entry_E" to="lane_exit_C" type="car_aggr3" /><trip id="r_and_alt_1_8_car_aggr3.8" depart="31870.83" from="lane_entry_E" to="lane_exit_C" type="car_aggr3" /><trip id="r_axs_tun_aAm_eGo_8_car_aggr1.0" depart="32004.68" from="lane_entry_C" to="lane_exit_B" type="car_aggr1" /><trip id="r_axs_tun_aEr_eGo_8_car_aggr5.1" depart="32007.78" from="lane_entry_C" to="lane_exit_B" type="car_aggr5" /><trip id="r_and_alt_1_8_big_truck.2" depart="32013.05" from="lane_entry_E" to="lane_exit_C" type="big_truck" /><trip id="r_luz_tun_aAm_eGo_8_small_truck.1" depart="32259.87" from="lane_entry_C" to="lane_exit_B" type="small_truck" /><trip id="r_luz_tun_aEr_eGo_8_big_truck.0" depart="32328.37" from="lane_entry_C" to="lane_exit_B" type="big_truck" /><trip id="r_luz_tun_aEr_eGo_8_car_aggr5.0" depart="32331.91" from="lane_entry_C" to="lane_exit_B" type="car_aggr5" /><trip id="r_axs_tun_aAm_eGo_8_car_aggr3.3" depart="32336.75" from="lane_entry_C" to="lane_exit_B" type="car_aggr3" /><trip id="r_axs_tun_aAm_eGo_8_car_aggr4.2" depart="32340.4" from="lane_entry_C" to="lane_exit_B" type="car_aggr4" /><trip id="r_luz_tun_aEr_eGo_8_car_aggr4.0" depart="32344.03" from="lane_entry_C" to="lane_exit_B" type="car_aggr4" /><trip id="r_and_alt_1_8_car_aggr2.0" depart="32345.0" from="lane_entry_E" to="lane_exit_C" type="car_aggr2" /><trip id="r_axs_tun_aEr_eGo_8_car_aggr3.1" depart="32475.76" from="lane_entry_C" to="lane_exit_B" type="car_aggr3" /><trip id="r_and_alt_1_8_car_aggr3.9" depart="32528.14" from="lane_entry_E" to="lane_exit_C" type="car_aggr3" /><trip id="r_and_alt_1_8_car_aggr3.10" depart="32612.18" from="lane_entry_E" to="lane_exit_C" type="car_aggr3" /><trip id="r_and_alt_1_8_car_aggr2.1" depart="32774.03" from="lane_entry_E" to="lane_exit_C" type="car_aggr2" /><trip id="r_and_alt_1_9_car_aggr2.0" depart="32779.68" from="lane_entry_E" to="lane_exit_C" type="car_aggr2" /><trip id="r_axs_tun_aEr_eGo_8_car_aggr3.2" depart="32979.64" from="lane_entry_C" to="lane_exit_B" type="car_aggr3" /><trip id="r_and_alt_1_9_car_aggr2.1" depart="33109.04" from="lane_entry_E" to="lane_exit_C" type="car_aggr2" /><trip id="r_and_alt_1_9_car_aggr2.2" depart="33126.37" from="lane_entry_E" to="lane_exit_C" type="car_aggr2" /><trip id="r_luz_tun_aAm_eGo_8_car_aggr3.0" depart="33338.84" from="lane_entry_C" to="lane_exit_B" type="car_aggr3" /><trip id="r_axs_tun_aEr_eGo_8_car_aggr3.3" depart="33374.63" from="lane_entry_C" to="lane_exit_B" type="car_aggr3" /><trip id="r_and_alt_1_9_car_aggr2.3" depart="33401.26" from="lane_entry_E" to="lane_exit_C" type="car_aggr2" /><trip id="r_axs_tun_aEr_eGo_8_car_aggr3.4" depart="33425.32" from="lane_entry_C" to="lane_exit_B" type="car_aggr3" /><trip id="r_axs_tun_aAm_eGo_8_car_aggr1.1" depart="33432.25" from="lane_entry_C" to="lane_exit_B" type="car_aggr1" /><trip id="r_and_alt_1_9_car_aggr3.0" depart="33458.02" from="lane_entry_E" to="lane_exit_C" type="car_aggr3" /><trip id="r_axs_tun_aAm_eGo_8_car_aggr2.0" depart="33559.9" from="lane_entry_C" to="lane_exit_B" type="car_aggr2" /><trip id="r_axs_tun_aAm_eGo_8_small_truck.0" depart="33563.4" from="lane_entry_C" to="lane_exit_B" type="small_truck" /><trip id="r_luz_tun_aEr_eGo_8_car_aggr5.1" depart="33566.64" from="lane_entry_C" to="lane_exit_B" type="car_aggr5" /><trip id="r_luz_tun_aAm_eGo_8_small_truck.2" depart="33571.22" from="lane_entry_C" to="lane_exit_B" type="small_truck" /><trip id="r_axs_tun_aEr_eGo_8_car_aggr5.2" depart="33574.51" from="lane_entry_C" to="lane_exit_B" type="car_aggr5" /><trip id="r_and_alt_1_9_small_truck.0" depart="33740.97" from="lane_entry_E" to="lane_exit_C" type="small_truck" /><trip id="r_and_alt_1_9_car_aggr1.0" depart="33747.79" from="lane_entry_E" to="lane_exit_C" type="car_aggr1" /><trip id="r_axs_tun_aAm_eGo_8_car_aggr4.3" depart="33854.05" from="lane_entry_C" to="lane_exit_B" type="car_aggr4" /><trip id="r_axs_tun_aEr_eGo_8_big_truck.0" depart="34100.03" from="lane_entry_C" to="lane_exit_B" type="big_truck" /><trip id="r_and_alt_1_9_car_aggr4.0" depart="34138.57" from="lane_entry_E" to="lane_exit_C" type="car_aggr4" /><trip id="r_axs_tun_aEr_eGo_8_car_aggr2.0" depart="34234.38" from="lane_entry_C" to="lane_exit_B" type="car_aggr2" /><trip id="r_axs_tun_aAm_eGo_8_car_aggr3.4" depart="34238.64" from="lane_entry_C" to="lane_exit_B" type="car_aggr3" /><trip id="r_and_alt_1_9_motorbike.0" depart="34261.89" from="lane_entry_E" to="lane_exit_C" type="motorbike" /><trip id="r_and_alt_1_9_car_aggr5.0" depart="34287.87" from="lane_entry_E" to="lane_exit_C" type="car_aggr5" /><trip id="r_axs_tun_aAm_eGo_8_small_truck.1" depart="34414.0" from="lane_entry_C" to="lane_exit_B" type="small_truck" /><trip id="r_and_alt_1_9_small_truck.1" depart="34473.05" from="lane_entry_E" to="lane_exit_C" type="small_truck" /><trip id="r_axs_tun_aEr_eGo_8_car_aggr4.0" depart="34693.91" from="lane_entry_C" to="lane_exit_B" type="car_aggr4" /><trip id="r_and_alt_1_9_car_aggr2.4" depart="34827.61" from="lane_entry_E" to="lane_exit_C" type="car_aggr2" /><trip id="r_axs_tun_aEr_eGo_9_car_aggr3.0" depart="34849.74" from="lane_entry_C" to="lane_exit_B" type="car_aggr3" /><trip id="r_and_alt_1_9_car_aggr4.1" depart="35492.11" from="lane_entry_E" to="lane_exit_C" type="car_aggr4" /><trip id="r_and_alt_1_9_small_truck.2" depart="35645.18" from="lane_entry_E" to="lane_exit_C" type="small_truck" /><trip id="r_and_alt_1_9_car_aggr3.1" depart="35649.68" from="lane_entry_E" to="lane_exit_C" type="car_aggr3" /><trip id="r_and_alt_1_9_car_aggr2.5" depart="35657.6" from="lane_entry_E" to="lane_exit_C" type="car_aggr2" /><trip id="r_luz_tun_aAm_eGo_8_car_aggr2.0" depart="35805.05" from="lane_entry_C" to="lane_exit_B" type="car_aggr2" /><trip id="r_luz_tun_aAm_eGo_9_car_aggr3.0" depart="35809.52" from="lane_entry_C" to="lane_exit_B" type="car_aggr3" /><trip id="r_axs_tun_aEr_eGo_9_motorbike.0" depart="35813.46" from="lane_entry_C" to="lane_exit_B" type="motorbike" /><trip id="r_axs_tun_aAm_eGo_9_car_aggr2.0" depart="35819.18" from="lane_entry_C" to="lane_exit_B" type="car_aggr2" /><trip id="r_and_alt_1_9_big_truck.0" depart="35846.47" from="lane_entry_E" to="lane_exit_C" type="big_truck" /><trip id="r_axs_tun_aEr_eGo_9_car_aggr2.0" depart="36044.87" from="lane_entry_C" to="lane_exit_B" type="car_aggr2" /><trip id="r_axs_tun_aAm_eGo_9_car_aggr2.1" depart="36394.2" from="lane_entry_C" to="lane_exit_B" type="car_aggr2" /><trip id="r_and_alt_1_10_car_aggr1.0" depart="36540.79" from="lane_entry_E" to="lane_exit_C" type="car_aggr1" /><trip id="r_and_alt_1_10_car_aggr3.0" depart="36682.24" from="lane_entry_E" to="lane_exit_C" type="car_aggr3" /><trip id="r_and_alt_1_10_car_aggr5.0" depart="36692.51" from="lane_entry_E" to="lane_exit_C" type="car_aggr5" /><trip id="r_luz_tun_aEr_eGo_9_car_aggr1.0" depart="36741.39" from="lane_entry_C" to="lane_exit_B" type="car_aggr1" /><trip id="r_axs_tun_aEr_eGo_9_car_aggr3.1" depart="36745.74" from="lane_entry_C" to="lane_exit_B" type="car_aggr3" /><trip id="r_axs_tun_aAm_eGo_9_small_truck.0" depart="36749.7" from="lane_entry_C" to="lane_exit_B" type="small_truck" /><trip id="r_luz_tun_aEr_eGo_9_small_truck.0" depart="36887.43" from="lane_entry_C" to="lane_exit_B" type="small_truck" /><trip id="r_luz_tun_aAm_eGo_9_car_aggr4.0" depart="36891.11" from="lane_entry_C" to="lane_exit_B" type="car_aggr4" /><trip id="r_and_alt_1_10_small_truck.0" depart="36955.95" from="lane_entry_E" to="lane_exit_C" type="small_truck" /><trip id="r_axs_tun_aEr_eGo_9_car_aggr5.0" depart="36958.67" from="lane_entry_C" to="lane_exit_B" type="car_aggr5" /><trip id="r_and_alt_1_10_car_aggr4.0" depart="37012.4" from="lane_entry_E" to="lane_exit_C" type="car_aggr4" /><trip id="r_and_alt_1_10_car_aggr2.0" depart="37060.11" from="lane_entry_E" to="lane_exit_C" type="car_aggr2" /><trip id="r_and_alt_1_10_car_aggr2.1" depart="37065.62" from="lane_entry_E" to="lane_exit_C" type="car_aggr2" /><trip id="r_and_alt_1_10_small_truck.1" depart="37138.24" from="lane_entry_E" to="lane_exit_C" type="small_truck" /><trip id="r_and_alt_1_10_car_aggr4.1" depart="37165.45" from="lane_entry_E" to="lane_exit_C" type="car_aggr4" /><trip id="r_luz_tun_aEr_eGo_9_car_aggr3.0" depart="37198.64" from="lane_entry_C" to="lane_exit_B" type="car_aggr3" /><trip id="r_luz_tun_aAm_eGo_9_car_aggr3.1" depart="37202.86" from="lane_entry_C" to="lane_exit_B" type="car_aggr3" /><trip id="r_and_alt_1_10_car_aggr3.1" depart="37219.97" from="lane_entry_E" to="lane_exit_C" type="car_aggr3" /><trip id="r_luz_tun_aAm_eGo_9_car_aggr4.1" depart="37270.07" from="lane_entry_C" to="lane_exit_B" type="car_aggr4" /><trip id="r_luz_tun_aEr_eGo_9_car_aggr3.1" depart="37343.54" from="lane_entry_C" to="lane_exit_B" type="car_aggr3" /><trip id="r_and_alt_1_10_car_aggr4.2" depart="37424.16" from="lane_entry_E" to="lane_exit_C" type="car_aggr4" /><trip id="r_and_alt_1_10_car_aggr3.2" depart="37440.33" from="lane_entry_E" to="lane_exit_C" type="car_aggr3" /><trip id="r_and_alt_1_10_car_aggr4.3" depart="37486.0" from="lane_entry_E" to="lane_exit_C" type="car_aggr4" /><trip id="r_luz_tun_aAm_eGo_9_car_aggr2.0" depart="37566.89" from="lane_entry_C" to="lane_exit_B" type="car_aggr2" /><trip id="r_and_alt_1_10_small_truck.2" depart="37612.61" from="lane_entry_E" to="lane_exit_C" type="small_truck" /><trip id="r_and_alt_1_10_car_aggr3.3" depart="37861.57" from="lane_entry_E" to="lane_exit_C" type="car_aggr3" /><trip id="r_axs_tun_aEr_eGo_9_car_aggr1.0" depart="37958.51" from="lane_entry_C" to="lane_exit_B" type="car_aggr1" /><trip id="r_luz_tun_aEr_eGo_9_motorbike.0" depart="37981.02" from="lane_entry_C" to="lane_exit_B" type="motorbike" /><trip id="r_alt_and_1_10_car_aggr2.0" depart="37987.1" from="lane_entry_C" to="lane_exit_E" type="car_aggr2" /><trip id="r_and_alt_1_10_car_aggr4.4" depart="38063.22" from="lane_entry_E" to="lane_exit_C" type="car_aggr4" /><trip id="r_and_alt_1_10_car_aggr2.2" depart="38112.83" from="lane_entry_E" to="lane_exit_C" type="car_aggr2" /><trip id="r_axs_tun_aAm_eGo_10_car_aggr3.0" depart="38220.44" from="lane_entry_C" to="lane_exit_B" type="car_aggr3" /><trip id="r_and_alt_1_10_car_aggr2.3" depart="38308.9" from="lane_entry_E" to="lane_exit_C" type="car_aggr2" /><trip id="r_and_alt_1_10_car_aggr1.1" depart="38358.3" from="lane_entry_E" to="lane_exit_C" type="car_aggr1" /><trip id="r_and_alt_1_10_car_aggr2.4" depart="38552.96" from="lane_entry_E" to="lane_exit_C" type="car_aggr2" /><trip id="r_alt_and_1_10_big_truck.0" depart="38562.97" from="lane_entry_C" to="lane_exit_E" type="big_truck" /><trip id="r_alt_and_1_10_car_aggr4.0" depart="38567.11" from="lane_entry_C" to="lane_exit_E" type="car_aggr4" /><trip id="r_alt_and_1_10_car_aggr3.0" depart="38633.93" from="lane_entry_C" to="lane_exit_E" type="car_aggr3" /><trip id="r_alt_and_1_10_car_aggr4.1" depart="38637.59" from="lane_entry_C" to="lane_exit_E" type="car_aggr4" /><trip id="r_alt_and_1_10_car_aggr3.1" depart="38785.23" from="lane_entry_C" to="lane_exit_E" type="car_aggr3" /><trip id="r_and_alt_1_10_small_truck.3" depart="38986.22" from="lane_entry_E" to="lane_exit_C" type="small_truck" /><trip id="r_and_alt_1_10_car_aggr4.5" depart="38990.25" from="lane_entry_E" to="lane_exit_C" type="car_aggr4" /><trip id="r_alt_and_1_10_car_aggr3.2" depart="39049.37" from="lane_entry_C" to="lane_exit_E" type="car_aggr3" /><trip id="r_and_alt_1_10_car_aggr4.6" depart="39151.15" from="lane_entry_E" to="lane_exit_C" type="car_aggr4" /><trip id="r_and_alt_1_10_car_aggr4.7" depart="39155.01" from="lane_entry_E" to="lane_exit_C" type="car_aggr4" /><trip id="r_and_alt_1_10_car_aggr2.5" depart="39269.53" from="lane_entry_E" to="lane_exit_C" type="car_aggr2" /><trip id="r_alt_and_1_10_car_aggr3.3" depart="39344.57" from="lane_entry_C" to="lane_exit_E" type="car_aggr3" /><trip id="r_and_alt_1_10_car_aggr3.4" depart="39438.02" from="lane_entry_E" to="lane_exit_C" type="car_aggr3" /><trip id="r_and_alt_1_10_small_truck.4" depart="39532.63" from="lane_entry_E" to="lane_exit_C" type="small_truck" /><trip id="r_and_alt_1_10_car_aggr2.6" depart="39587.71" from="lane_entry_E" to="lane_exit_C" type="car_aggr2" /><trip id="r_alt_and_1_10_car_aggr2.1" depart="39697.79" from="lane_entry_C" to="lane_exit_E" type="car_aggr2" /><trip id="r_alt_and_1_10_car_aggr4.2" depart="39701.44" from="lane_entry_C" to="lane_exit_E" type="car_aggr4" /><trip id="r_alt_and_1_10_car_aggr5.0" depart="39704.61" from="lane_entry_C" to="lane_exit_E" type="car_aggr5" /><trip id="r_axs_tun_aAm_eGo_10_car_aggr3.1" depart="39709.45" from="lane_entry_C" to="lane_exit_B" type="car_aggr3" /><trip id="r_and_alt_1_10_car_aggr3.5" depart="39726.62" from="lane_entry_E" to="lane_exit_C" type="car_aggr3" /><trip id="r_and_alt_1_10_big_truck.0" depart="40017.45" from="lane_entry_E" to="lane_exit_C" type="big_truck" /><trip id="r_and_alt_1_11_car_aggr3.0" depart="40022.31" from="lane_entry_E" to="lane_exit_C" type="car_aggr3" /><trip id="r_and_alt_1_11_car_aggr5.0" depart="40031.69" from="lane_entry_E" to="lane_exit_C" type="car_aggr5" /><trip id="r_and_alt_1_11_car_aggr4.0" depart="40038.62" from="lane_entry_E" to="lane_exit_C" type="car_aggr4" /><trip id="r_alt_and_1_10_car_aggr3.4" depart="40057.74" from="lane_entry_C" to="lane_exit_E" type="car_aggr3" /><trip id="r_luz_tun_aEr_eGo_10_car_aggr3.0" depart="40112.29" from="lane_entry_C" to="lane_exit_B" type="car_aggr3" /><trip id="r_and_alt_1_11_small_truck.0" depart="40228.17" from="lane_entry_E" to="lane_exit_C" type="small_truck" /><trip id="r_and_alt_1_11_car_aggr4.1" depart="40234.61" from="lane_entry_E" to="lane_exit_C" type="car_aggr4" /><trip id="r_alt_and_1_10_car_aggr2.2" depart="40323.68" from="lane_entry_C" to="lane_exit_E" type="car_aggr2" /><trip id="r_alt_and_1_10_car_aggr2.3" depart="40328.91" from="lane_entry_C" to="lane_exit_E" type="car_aggr2" /><trip id="r_alt_and_1_10_car_aggr4.3" depart="40414.26" from="lane_entry_C" to="lane_exit_E" type="car_aggr4" /><trip id="r_and_alt_1_11_small_truck.1" depart="40460.73" from="lane_entry_E" to="lane_exit_C" type="small_truck" /><trip id="r_and_alt_1_11_small_truck.2" depart="40494.19" from="lane_entry_E" to="lane_exit_C" type="small_truck" /><trip id="r_and_alt_1_11_small_truck.3" depart="40504.08" from="lane_entry_E" to="lane_exit_C" type="small_truck" /><trip id="r_luz_tun_aAm_eGo_10_small_truck.0" depart="40536.31" from="lane_entry_C" to="lane_exit_B" type="small_truck" /><trip id="r_and_alt_1_11_car_aggr1.0" depart="40591.86" from="lane_entry_E" to="lane_exit_C" type="car_aggr1" /><trip id="r_and_alt_1_11_car_aggr3.1" depart="40596.64" from="lane_entry_E" to="lane_exit_C" type="car_aggr3" /><trip id="r_and_alt_1_11_big_truck.0" depart="40618.88" from="lane_entry_E" to="lane_exit_C" type="big_truck" /><trip id="r_and_alt_1_11_car_aggr5.1" depart="40670.36" from="lane_entry_E" to="lane_exit_C" type="car_aggr5" /><trip id="r_and_alt_1_11_car_aggr1.1" depart="40686.7" from="lane_entry_E" to="lane_exit_C" type="car_aggr1" /><trip id="r_and_alt_1_11_car_aggr1.2" depart="40692.74" from="lane_entry_E" to="lane_exit_C" type="car_aggr1" /><trip id="r_and_alt_1_11_car_aggr3.2" depart="40803.83" from="lane_entry_E" to="lane_exit_C" type="car_aggr3" /><trip id="r_alt_and_1_10_car_aggr2.4" depart="40839.9" from="lane_entry_C" to="lane_exit_E" type="car_aggr2" /><trip id="r_alt_and_1_10_car_aggr4.4" depart="40843.49" from="lane_entry_C" to="lane_exit_E" type="car_aggr4" /><trip id="r_and_alt_1_11_car_aggr3.3" depart="40859.85" from="lane_entry_E" to="lane_exit_C" type="car_aggr3" /><trip id="r_alt_and_1_10_car_aggr3.5" depart="40934.35" from="lane_entry_C" to="lane_exit_E" type="car_aggr3" /><trip id="r_and_alt_1_11_car_aggr2.0" depart="41204.62" from="lane_entry_E" to="lane_exit_C" type="car_aggr2" /><trip id="r_and_alt_1_11_car_aggr2.1" depart="41325.35" from="lane_entry_E" to="lane_exit_C" type="car_aggr2" /><trip id="r_alt_and_1_10_car_aggr4.5" depart="41373.29" from="lane_entry_C" to="lane_exit_E" type="car_aggr4" /><trip id="r_alt_and_1_10_car_aggr4.6" depart="41376.99" from="lane_entry_C" to="lane_exit_E" type="car_aggr4" /><trip id="r_alt_and_1_10_car_aggr3.6" depart="41381.46" from="lane_entry_C" to="lane_exit_E" type="car_aggr3" /><trip id="r_alt_and_1_11_car_aggr3.0" depart="41385.62" from="lane_entry_C" to="lane_exit_E" type="car_aggr3" /><trip id="r_axs_tun_aAm_eGo_10_car_aggr5.0" depart="41415.79" from="lane_entry_C" to="lane_exit_B" type="car_aggr5" /><trip id="r_and_alt_1_11_car_aggr3.4" depart="41427.7" from="lane_entry_E" to="lane_exit_C" type="car_aggr3" /><trip id="r_and_alt_1_11_car_aggr5.2" depart="41500.44" from="lane_entry_E" to="lane_exit_C" type="car_aggr5" /><trip id="r_axs_tun_aAm_eGo_10_car_aggr5.1" depart="41734.18" from="lane_entry_C" to="lane_exit_B" type="car_aggr5" /><trip id="r_alt_an