<?xml version='1.0' encoding='utf-8'?>
<trips><trip id="r_axs_tun_aEr_eGo_1_car_aggr4.0" depart="5312.56" from="lane_entry_A" to="lane_exit_B" type="car_aggr4" /><trip id="r_luz_tun_aAm_eGo_1_car_aggr3.0" depart="7463.51" from="lane_entry_A" to="lane_exit_B" type="car_aggr3" /><trip id="r_luz_tun_aAm_eGo_1_big_truck.0" depart="7601.6" from="lane_entry_A" to="lane_exit_B" type="big_truck" /><trip id="r_axs_tun_aEr_eGo_1_car_aggr3.0" depart="8612.2" from="lane_entry_A" to="lane_exit_B" type="car_aggr3" /><trip id="r_axs_tun_aEr_eGo_1_small_truck.0" depart="8834.39" from="lane_entry_A" to="lane_exit_B" type="small_truck" /><trip id="r_and_alt_1_2_car_aggr4.0" depart="9470.31" from="lane_entry_B" to="lane_exit_A" type="car_aggr4" /><trip id="r_was_ams_3_car_aggr2.0" depart="11259.24" from="lane_entry_B" to="lane_exit_A" type="car_aggr2" /><trip id="r_axs_tun_aEr_eWa_2_car_aggr5.0" depart="11864.44" from="lane_entry_A" to="lane_exit_B" type="car_aggr5" /><trip id="r_tun_axs_KS_____3_car_aggr2.0" depart="12982.98" from="lane_entry_B" to="lane_exit_A" type="car_aggr2" /><trip id="r_tun_axs_KS_____3_car_aggr3.0" depart="13439.63" from="lane_entry_B" to="lane_exit_A" type="car_aggr3" /><trip id="r_tun_axs_KS_____3_car_aggr3.1" depart="14242.34" from="lane_entry_B" to="lane_exit_A" type="car_aggr3" /><trip id="r_tun_axs_KS_____3_car_aggr3.2" depart="14518.12" from="lane_entry_B" to="lane_exit_A" type="car_aggr3" /><trip id="r_luz_tun_aAm_eWa_4_car_aggr4.0" depart="16688.11" from="lane_entry_A" to="lane_exit_B" type="car_aggr4" /><trip id="r_and_alt_1_4_car_aggr3.0" depart="17083.76" from="lane_entry_B" to="lane_exit_A" type="car_aggr3" /><trip id="r_luz_tun_aAm_eWa_4_car_aggr3.0" depart="17250.51" from="lane_entry_A" to="lane_exit_B" type="car_aggr3" /><trip id="r_luz_tun_aAm_eWa_4_small_truck.0" depart="17383.74" from="lane_entry_A" to="lane_exit_B" type="small_truck" /><trip id="r_luz_tun_aAm_eWa_4_car_aggr3.1" depart="17550.97" from="lane_entry_A" to="lane_exit_B" type="car_aggr3" /><trip id="r_axs_tun_aEr_eWa_4_car_aggr3.0" depart="17581.17" from="lane_entry_A" to="lane_exit_B" type="car_aggr3" /><trip id="r_and_alt_1_4_car_aggr4.0" depart="18675.52" from="lane_entry_B" to="lane_exit_A" type="car_aggr4" /><trip id="r_luz_tun_aEr_eWa_4_car_aggr3.0" depart="18695.84" from="lane_entry_A" to="lane_exit_B" type="car_aggr3" /><trip id="r_luz_tun_aEr_eWa_4_car_aggr5.0" depart="18698.95" from="lane_entry_A" to="lane_exit_B" type="car_aggr5" /><trip id="r_axs_tun_aAm_eWa_4_big_truck.0" depart="19053.55" from="lane_entry_A" to="lane_exit_B" type="big_truck" /><trip id="r_and_alt_1_6_car_aggr2.0" depart="22609.6" from="lane_entry_B" to="lane_exit_A" type="car_aggr2" /><trip id="r_and_alt_1_6_car_aggr3.0" depart="22876.82" from="lane_entry_B" to="lane_exit_A" type="car_aggr3" /><trip id="r_and_alt_1_6_car_aggr3.1" depart="23024.14" from="lane_entry_B" to="lane_exit_A" type="car_aggr3" /><trip id="r_alt_and_1_6_car_aggr3.0" depart="23097.35" from="lane_entry_A" to="lane_exit_B" type="car_aggr3" /><trip id="r_and_alt_1_6_car_aggr3.2" depart="24028.58" from="lane_entry_B" to="lane_exit_A" type="car_aggr3" /><trip id="r_alt_and_1_6_big_truck.0" depart="24207.14" from="lane_entry_A" to="lane_exit_B" type="big_truck" /><trip id="r_alt_and_1_6_car_aggr4.0" depart="24429.04" from="lane_entry_A" to="lane_exit_B" type="car_aggr4" /><trip id="r_alt_and_1_6_small_truck.0" depart="24509.69" from="lane_entry_A" to="lane_exit_B" type="small_truck" /><trip id="r_and_alt_1_6_small_truck.0" depart="24694.71" from="lane_entry_B" to="lane_exit_A" type="small_truck" /><trip id="r_and_alt_1_6_car_aggr4.0" depart="24792.38" from="lane_entry_B" to="lane_exit_A" type="car_aggr4" /><trip id="r_and_alt_1_6_car_aggr2.1" depart="25048.88" from="lane_entry_B" to="lane_exit_A" type="car_aggr2" /><trip id="r_and_alt_1_6_car_aggr5.0" depart="25217.13" from="lane_entry_B" to="lane_exit_A" type="car_aggr5" /><trip id="r_alt_and_1_6_car_aggr3.1" depart="25684.98" from="lane_entry_A" to="lane_exit_B" type="car_aggr3" /><trip id="r_alt_and_1_6_small_truck.1" depart="25885.11" from="lane_entry_A" to="lane_exit_B" type="small_truck" /><trip id="r_and_alt_1_7_car_aggr3.0" depart="26415.52" from="lane_entry_B" to="lane_exit_A" type="car_aggr3" /><trip id="r_and_alt_1_7_car_aggr2.0" depart="26441.37" from="lane_entry_B" to="lane_exit_A" type="car_aggr2" /><trip id="r_and_alt_1_7_car_aggr5.0" depart="26444.67" from="lane_entry_B" to="lane_exit_A" type="car_aggr5" /><trip id="r_and_alt_1_7_big_truck.0" depart="26866.75" from="lane_entry_B" to="lane_exit_A" type="big_truck" /><trip id="r_and_alt_1_7_car_aggr1.0" depart="26927.09" from="lane_entry_B" to="lane_exit_A" type="car_aggr1" /><trip id="r_luz_tun_aAm_eWa_7_motorbike.0" depart="27031.55" from="lane_entry_A" to="lane_exit_B" type="motorbike" /><trip id="r_and_alt_1_7_big_truck.1" depart="27103.02" from="lane_entry_B" to="lane_exit_A" type="big_truck" /><trip id="r_and_alt_1_7_car_aggr1.1" depart="27329.79" from="lane_entry_B" to="lane_exit_A" type="car_aggr1" /><trip id="r_and_alt_1_7_car_aggr5.1" depart="27333.26" from="lane_entry_B" to="lane_exit_A" type="car_aggr5" /><trip id="r_and_alt_1_7_car_aggr3.1" depart="27337.88" from="lane_entry_B" to="lane_exit_A" type="car_aggr3" /><trip id="r_and_alt_1_7_car_aggr4.0" depart="27341.64" from="lane_entry_B" to="lane_exit_A" type="car_aggr4" /><trip id="r_and_alt_1_7_car_aggr5.2" depart="27344.87" from="lane_entry_B" to="lane_exit_A" type="car_aggr5" /><trip id="r_and_alt_1_7_car_aggr3.2" depart="27390.63" from="lane_entry_B" to="lane_exit_A" type="car_aggr3" /><trip id="r_and_alt_1_7_motorbike.0" depart="27409.98" from="lane_entry_B" to="lane_exit_A" type="motorbike" /><trip id="r_luz_tun_aAm_eGo_7_car_aggr3.0" depart="27492.78" from="lane_entry_A" to="lane_exit_B" type="car_aggr3" /><trip id="r_luz_tun_aEr_eWa_7_small_truck.0" depart="27496.64" from="lane_entry_A" to="lane_exit_B" type="small_truck" /><trip id="r_and_alt_1_7_car_aggr3.3" depart="27544.48" from="lane_entry_B" to="lane_exit_A" type="car_aggr3" /><trip id="r_and_alt_1_7_car_aggr1.2" depart="27635.28" from="lane_entry_B" to="lane_exit_A" type="car_aggr1" /><trip id="r_and_alt_1_7_car_aggr1.3" depart="27696.55" from="lane_entry_B" to="lane_exit_A" type="car_aggr1" /><trip id="r_and_alt_1_7_big_truck.2" depart="27759.3" from="lane_entry_B" to="lane_exit_A" type="big_truck" /><trip id="r_and_alt_1_7_motorbike.1" depart="27763.82" from="lane_entry_B" to="lane_exit_A" type="motorbike" /><trip id="r_and_alt_1_7_car_aggr5.3" depart="27766.91" from="lane_entry_B" to="lane_exit_A" type="car_aggr5" /><trip id="r_and_alt_1_7_motorbike.2" depart="27770.68" from="lane_entry_B" to="lane_exit_A" type="motorbike" /><trip id="r_and_alt_1_7_car_aggr3.4" depart="27774.98" from="lane_entry_B" to="lane_exit_A" type="car_aggr3" /><trip id="r_luz_tun_aAm_eGo_7_car_aggr1.1" depart="27802.89" from="lane_entry_A" to="lane_exit_B" type="car_aggr1" /><trip id="r_luz_tun_aAm_eGo_7_car_aggr1.0" depart="27884.59" from="lane_entry_A" to="lane_exit_B" type="car_aggr1" /><trip id="r_luz_tun_aAm_eGo_7_car_aggr3.1" depart="27908.05" from="lane_entry_A" to="lane_exit_B" type="car_aggr3" /><trip id="r_alt_and_1_7_car_aggr4.0" depart="27975.68" from="lane_entry_A" to="lane_exit_B" type="car_aggr4" /><trip id="r_and_alt_1_7_car_aggr1.4" depart="27980.53" from="lane_entry_B" to="lane_exit_A" type="car_aggr1" /><trip id="r_and_alt_1_7_car_aggr1.5" depart="28050.17" from="lane_entry_B" to="lane_exit_A" type="car_aggr1" /><trip id="r_and_alt_1_7_car_aggr3.5" depart="28056.05" from="lane_entry_B" to="lane_exit_A" type="car_aggr3" /><trip id="r_luz_tun_aEr_eGo_7_car_aggr3.0" depart="28074.75" from="lane_entry_A" to="lane_exit_B" type="car_aggr3" /><trip id="r_luz_tun_aAm_eGo_7_car_aggr1.2" depart="28279.75" from="lane_entry_A" to="lane_exit_B" type="car_aggr1" /><trip id="r_luz_tun_aAm_eGo_7_car_aggr2.0" depart="28284.93" from="lane_entry_A" to="lane_exit_B" type="car_aggr2" /><trip id="r_and_alt_1_7_car_aggr1.6" depart="28341.24" from="lane_entry_B" to="lane_exit_A" type="car_aggr1" /><trip id="r_alt_and_1_7_car_aggr1.0" depart="28387.7" from="lane_entry_A" to="lane_exit_B" type="car_aggr1" /><trip id="r_luz_tun_aAm_eWa_7_car_aggr3.0" depart="28605.09" from="lane_entry_A" to="lane_exit_B" type="car_aggr3" /><trip id="r_luz_tun_aAm_eGo_7_small_truck.0" depart="28609.01" from="lane_entry_A" to="lane_exit_B" type="small_truck" /><trip id="r_luz_tun_aEr_eWa_7_car_aggr1.0" depart="28628.94" from="lane_entry_A" to="lane_exit_B" type="car_aggr1" /><trip id="r_and_alt_1_7_car_aggr5.4" depart="28685.06" from="lane_entry_B" to="lane_exit_A" type="car_aggr5" /><trip id="r_and_alt_1_7_car_aggr5.5" depart="28688.59" from="lane_entry_B" to="lane_exit_A" type="car_aggr5" /><trip id="r_and_alt_1_7_car_aggr4.1" depart="28692.51" from="lane_entry_B" to="lane_exit_A" type="car_aggr4" /><trip id="r_luz_tun_aAm_eGo_7_car_aggr1.3" depart="28719.34" from="lane_entry_A" to="lane_exit_B" type="car_aggr1" /><trip id="r_luz_tun_aEr_eWa_7_car_aggr3.0" depart="28723.52" from="lane_entry_A" to="lane_exit_B" type="car_aggr3" /><trip id="r_luz_tun_aEr_eWa_7_car_aggr4.1" depart="28727.24" from="lane_entry_A" to="lane_exit_B" type="car_aggr4" /><trip id="r_luz_tun_aAm_eWa_7_motorbike.1" depart="28736.3" from="lane_entry_A" to="lane_exit_B" type="motorbike" /><trip id="r_luz_tun_aEr_eGo_7_car_aggr3.1" depart="28740.68" from="lane_entry_A" to="lane_exit_B" type="car_aggr3" /><trip id="r_luz_tun_aEr_eWa_7_car_aggr4.0" depart="28744.27" from="lane_entry_A" to="lane_exit_B" type="car_aggr4" /><trip id="r_and_alt_1_7_car_aggr1.7" depart="28787.98" from="lane_entry_B" to="lane_exit_A" type="car_aggr1" /><trip id="r_and_alt_1_7_car_aggr4.2" depart="28791.93" from="lane_entry_B" to="lane_exit_A" type="car_aggr4" /><trip id="r_and_alt_1_7_small_truck.0" depart="28954.49" from="lane_entry_B" to="lane_exit_A" type="small_truck" /><trip id="r_luz_tun_aEr_eWa_7_big_truck.0" depart="29005.76" from="lane_entry_A" to="lane_exit_B" type="big_truck" /><trip id="r_luz_tun_aEr_eWa_7_car_aggr2.0" depart="29011.34" from="lane_entry_A" to="lane_exit_B" type="car_aggr2" /><trip id="r_and_alt_1_7_car_aggr4.3" depart="29067.33" from="lane_entry_B" to="lane_exit_A" type="car_aggr4" /><trip id="r_luz_tun_aAm_eGo_7_car_aggr2.1" depart="29091.29" from="lane_entry_A" to="lane_exit_B" type="car_aggr2" /><trip id="r_luz_tun_aEr_eGo_7_car_aggr2.0" depart="29096.59" from="lane_entry_A" to="lane_exit_B" type="car_aggr2" /><trip id="r_luz_tun_aAm_eWa_7_car_aggr4.0" depart="29100.35" from="lane_entry_A" to="lane_exit_B" type="car_aggr4" /><trip id="r_luz_tun_aEr_eGo_7_small_truck.0" depart="29104.4" from="lane_entry_A" to="lane_exit_B" type="small_truck" /><trip id="r_and_alt_1_7_car_aggr4.4" depart="29143.01" from="lane_entry_B" to="lane_exit_A" type="car_aggr4" /><trip id="r_and_alt_1_7_car_aggr3.6" depart="29175.46" from="lane_entry_B" to="lane_exit_A" type="car_aggr3" /><trip id="r_and_alt_1_7_car_aggr3.7" depart="29179.72" from="lane_entry_B" to="lane_exit_A" type="car_aggr3" /><trip id="r_and_alt_1_7_car_aggr5.6" depart="29182.75" from="lane_entry_B" to="lane_exit_A" type="car_aggr5" /><trip id="r_and_alt_1_7_car_aggr2.1" depart="29280.07" from="lane_entry_B" to="lane_exit_A" type="car_aggr2" /><trip id="r_luz_tun_aEr_eWa_7_big_truck.1" depart="29305.24" from="lane_entry_A" to="lane_exit_B" type="big_truck" /><trip id="r_luz_tun_aEr_eGo_7_small_truck.1" depart="29309.16" from="lane_entry_A" to="lane_exit_B" type="small_truck" /><trip id="r_luz_tun_aAm_eWa_7_car_aggr3.1" depart="29313.47" from="lane_entry_A" to="lane_exit_B" type="car_aggr3" /><trip id="r_luz_tun_aAm_eGo_7_car_aggr1.4" depart="29323.54" from="lane_entry_A" to="lane_exit_B" type="car_aggr1" /><trip id="r_luz_tun_aAm_eGo_7_big_truck.0" depart="29410.04" from="lane_entry_A" to="lane_exit_B" type="big_truck" /><trip id="r_luz_tun_aAm_eGo_7_car_aggr5.0" depart="29413.55" from="lane_entry_A" to="lane_exit_B" type="car_aggr5" /><trip id="r_luz_tun_aAm_eGo_7_small_truck.1" depart="29502.24" from="lane_entry_A" to="lane_exit_B" type="small_truck" /><trip id="r_luz_tun_aAm_eGo_7_car_aggr4.0" depart="29505.97" from="lane_entry_A" to="lane_exit_B" type="car_aggr4" /><trip id="r_and_alt_1_8_car_aggr5.0" depart="29517.89" from="lane_entry_B" to="lane_exit_A" type="car_aggr5" /><trip id="r_luz_tun_aEr_eGo_7_car_aggr5.0" depart="29931.13" from="lane_entry_A" to="lane_exit_B" type="car_aggr5" /><trip id="r_and_alt_1_8_car_aggr4.0" depart="30108.87" from="lane_entry_B" to="lane_exit_A" type="car_aggr4" /><trip id="r_and_alt_1_8_car_aggr3.0" depart="30195.92" from="lane_entry_B" to="lane_exit_A" type="car_aggr3" /><trip id="r_and_alt_1_8_car_aggr3.1" depart="30200.19" from="lane_entry_B" to="lane_exit_A" type="car_aggr3" /><trip id="r_luz_tun_aEr_eWa_7_car_aggr3.1" depart="30319.47" from="lane_entry_A" to="lane_exit_B" type="car_aggr3" /><trip id="r_and_alt_1_8_big_truck.0" depart="30335.27" from="lane_entry_B" to="lane_exit_A" type="big_truck" /><trip id="r_luz_tun_aEr_eWa_7_car_aggr2.1" depart="30355.3" from="lane_entry_A" to="lane_exit_B" type="car_aggr2" /><trip id="r_luz_tun_aEr_eWa_7_car_aggr5.0" depart="30537.21" from="lane_entry_A" to="lane_exit_B" type="car_aggr5" /><trip id="r_luz_tun_aEr_eGo_7_car_aggr5.1" depart="30618.04" from="lane_entry_A" to="lane_exit_B" type="car_aggr5" /><trip id="r_luz_tun_aEr_eGo_7_small_truck.2" depart="30622.62" from="lane_entry_A" to="lane_exit_B" type="small_truck" /><trip id="r_axs_tun_aAm_eGo_8_car_aggr3.0" depart="30626.86" from="lane_entry_A" to="lane_exit_B" type="car_aggr3" /><trip id="r_and_alt_1_8_small_truck.0" depart="30627.88" from="lane_entry_B" to="lane_exit_A" type="small_truck" /><trip id="r_luz_tun_aAm_eWa_7_car_aggr1.0" depart="30633.69" from="lane_entry_A" to="lane_exit_B" type="car_aggr1" /><trip id="r_and_alt_1_8_car_aggr3.2" depart="30670.13" from="lane_entry_B" to="lane_exit_A" type="car_aggr3" /><trip id="r_and_alt_1_8_car_aggr5.1" depart="30673.47" from="lane_entry_B" to="lane_exit_A" type="car_aggr5" /><trip id="r_luz_tun_aEr_eWa_7_small_truck.1" depart="30766.39" from="lane_entry_A" to="lane_exit_B" type="small_truck" /><trip id="r_luz_tun_aEr_eGo_7_small_truck.3" depart="30769.99" from="lane_entry_A" to="lane_exit_B" type="small_truck" /><trip id="r_axs_tun_aEr_eGo_8_car_aggr5.0" depart="30773.21" from="lane_entry_A" to="lane_exit_B" type="car_aggr5" /><trip id="r_luz_tun_aAm_eWa_8_car_aggr2.0" depart="30831.85" from="lane_entry_A" to="lane_exit_B" type="car_aggr2" /><trip id="r_axs_tun_aAm_eGo_8_car_aggr4.0" depart="30835.5" from="lane_entry_A" to="lane_exit_B" type="car_aggr4" /><trip id="r_luz_tun_aAm_eGo_8_car_aggr5.0" depart="30838.59" from="lane_entry_A" to="lane_exit_B" type="car_aggr5" /><trip id="r_luz_tun_aAm_eWa_8_car_aggr3.0" depart="30888.52" from="lane_entry_A" to="lane_exit_B" type="car_aggr3" /><trip id="r_luz_tun_aEr_eWa_7_car_aggr3.2" depart="30897.63" from="lane_entry_A" to="lane_exit_B" type="car_aggr3" /><trip id="r_and_alt_1_8_car_aggr3.3" depart="30897.94" from="lane_entry_B" to="lane_exit_A" type="car_aggr3" /><trip id="r_and_alt_1_8_car_aggr3.4" depart="30968.7" from="lane_entry_B" to="lane_exit_A" type="car_aggr3" /><trip id="r_luz_tun_aAm_eWa_8_small_truck.0" depart="31001.46" from="lane_entry_A" to="lane_exit_B" type="small_truck" /><trip id="r_luz_tun_aAm_eGo_8_small_truck.0" depart="31004.99" from="lane_entry_A" to="lane_exit_B" type="small_truck" /><trip id="r_luz_tun_aEr_eGo_8_car_aggr3.0" depart="31078.81" from="lane_entry_A" to="lane_exit_B" type="car_aggr3" /><trip id="r_axs_tun_aAm_eGo_8_car_aggr4.1" depart="31121.14" from="lane_entry_A" to="lane_exit_B" type="car_aggr4" /><trip id="r_axs_tun_aAm_eGo_8_car_aggr3.1" depart="31257.78" from="lane_entry_A" to="lane_exit_B" type="car_aggr3" /><trip id="r_axs_tun_aAm_eGo_8_car_aggr3.2" depart="31289.95" from="lane_entry_A" to="lane_exit_B" type="car_aggr3" /><trip id="r_axs_tun_aEr_eGo_8_car_aggr3.0" depart="31295.01" from="lane_entry_A" to="lane_exit_B" type="car_aggr3" /><trip id="r_luz_tun_aEr_eWa_8_motorbike.0" depart="31318.23" from="lane_entry_A" to="lane_exit_B" type="motorbike" /><trip id="r_and_alt_1_8_big_truck.1" depart="31353.44" from="lane_entry_B" to="lane_exit_A" type="big_truck" /><trip id="r_axs_tun_aAm_eGo_8_car_aggr1.0" depart="31443.12" from="lane_entry_A" to="lane_exit_B" type="car_aggr1" /><trip id="r_axs_tun_aEr_eGo_8_car_aggr5.1" depart="31446.34" from="lane_entry_A" to="lane_exit_B" type="car_aggr5" /><trip id="r_axs_tun_aAm_eWa_8_motorbike.0" depart="31450.18" from="lane_entry_A" to="lane_exit_B" type="motorbike" /><trip id="r_luz_tun_aAm_eGo_8_small_truck.1" depart="31696.19" from="lane_entry_A" to="lane_exit_B" type="small_truck" /><trip id="r_luz_tun_aEr_eGo_8_big_truck.0" depart="31728.25" from="lane_entry_A" to="lane_exit_B" type="big_truck" /><trip id="r_luz_tun_aEr_eGo_8_car_aggr5.0" depart="31731.8" from="lane_entry_A" to="lane_exit_B" type="car_aggr5" /><trip id="r_axs_tun_aAm_eGo_8_car_aggr3.3" depart="31736.61" from="lane_entry_A" to="lane_exit_B" type="car_aggr3" /><trip id="r_axs_tun_aAm_eGo_8_car_aggr4.2" depart="31740.36" from="lane_entry_A" to="lane_exit_B" type="car_aggr4" /><trip id="r_luz_tun_aEr_eGo_8_car_aggr4.0" depart="31743.92" from="lane_entry_A" to="lane_exit_B" type="car_aggr4" /><trip id="r_and_alt_1_8_car_aggr1.0" depart="31855.36" from="lane_entry_B" to="lane_exit_A" type="car_aggr1" /><trip id="r_and_alt_1_8_car_aggr3.5" depart="31859.9" from="lane_entry_B" to="lane_exit_A" type="car_aggr3" /><trip id="r_and_alt_1_8_small_truck.1" depart="31863.52" from="lane_entry_B" to="lane_exit_A" type="small_truck" /><trip id="r_and_alt_1_8_car_aggr3.6" depart="31884.12" from="lane_entry_B" to="lane_exit_A" type="car_aggr3" /><trip id="r_luz_tun_aAm_eWa_8_car_aggr1.0" depart="31904.37" from="lane_entry_A" to="lane_exit_B" type="car_aggr1" /><trip id="r_axs_tun_aEr_eWa_8_car_aggr4.0" depart="31935.29" from="lane_entry_A" to="lane_exit_B" type="car_aggr4" /><trip id="r_and_alt_1_8_small_truck.2" depart="32000.28" from="lane_entry_B" to="lane_exit_A" type="small_truck" /><trip id="r_and_alt_1_8_car_aggr1.1" depart="32052.59" from="lane_entry_B" to="lane_exit_A" type="car_aggr1" /><trip id="r_axs_tun_aEr_eGo_8_car_aggr3.1" depart="32087.85" from="lane_entry_A" to="lane_exit_B" type="car_aggr3" /><trip id="r_and_alt_1_8_small_truck.3" depart="32110.6" from="lane_entry_B" to="lane_exit_A" type="small_truck" /><trip id="r_and_alt_1_8_car_aggr3.7" depart="32379.64" from="lane_entry_B" to="lane_exit_A" type="car_aggr3" /><trip id="r_and_alt_1_8_car_aggr3.8" depart="32383.9" from="lane_entry_B" to="lane_exit_A" type="car_aggr3" /><trip id="r_axs_tun_aEr_eGo_8_car_aggr3.2" depart="32482.06" from="lane_entry_A" to="lane_exit_B" type="car_aggr3" /><trip id="r_luz_tun_aEr_eWa_8_small_truck.0" depart="32515.79" from="lane_entry_A" to="lane_exit_B" type="small_truck" /><trip id="r_luz_tun_aAm_eWa_8_car_aggr2.1" depart="32536.64" from="lane_entry_A" to="lane_exit_B" type="car_aggr2" /><trip id="r_and_alt_1_8_big_truck.2" depart="32642.03" from="lane_entry_B" to="lane_exit_A" type="big_truck" /><trip id="r_luz_tun_aAm_eGo_8_car_aggr3.0" depart="32696.64" from="lane_entry_A" to="lane_exit_B" type="car_aggr3" /><trip id="r_axs_tun_aEr_eWa_8_car_aggr5.0" depart="32815.41" from="lane_entry_A" to="lane_exit_B" type="car_aggr5" /><trip id="r_axs_tun_aEr_eGo_8_car_aggr3.3" depart="32820.2" from="lane_entry_A" to="lane_exit_B" type="car_aggr3" /><trip id="r_axs_tun_aEr_eGo_8_car_aggr3.4" depart="32824.36" from="lane_entry_A" to="lane_exit_B" type="car_aggr3" /><trip id="r_axs_tun_aAm_eGo_8_car_aggr1.1" depart="32831.05" from="lane_entry_A" to="lane_exit_B" type="car_aggr1" /><trip id="r_luz_tun_aEr_eWa_8_car_aggr2.0" depart="32932.06" from="lane_entry_A" to="lane_exit_B" type="car_aggr2" /><trip id="r_axs_tun_aEr_eWa_8_car_aggr5.1" depart="32935.26" from="lane_entry_A" to="lane_exit_B" type="car_aggr5" /><trip id="r_axs_tun_aAm_eGo_8_car_aggr2.0" depart="32941.49" from="lane_entry_A" to="lane_exit_B" type="car_aggr2" /><trip id="r_axs_tun_aEr_eWa_8_car_aggr2.0" depart="32946.73" from="lane_entry_A" to="lane_exit_B" type="car_aggr2" /><trip id="r_and_alt_1_8_car_aggr2.0" depart="32967.97" from="lane_entry_B" to="lane_exit_A" type="car_aggr2" /><trip id="r_luz_tun_aAm_eWa_8_car_aggr4.0" depart="32969.56" from="lane_entry_A" to="lane_exit_B" type="car_aggr4" /><trip id="r_axs_tun_aAm_eGo_8_small_truck.0" depart="32973.75" from="lane_entry_A" to="lane_exit_B" type="small_truck" /><trip id="r_luz_tun_aEr_eGo_8_car_aggr5.1" depart="32977.04" from="lane_entry_A" to="lane_exit_B" type="car_aggr5" /><trip id="r_luz_tun_aAm_eGo_8_small_truck.2" depart="32981.57" from="lane_entry_A" to="lane_exit_B" type="small_truck" /><trip id="r_axs_tun_aEr_eGo_8_car_aggr5.2" depart="32984.87" from="lane_entry_A" to="lane_exit_B" type="car_aggr5" /><trip id="r_and_alt_1_8_car_aggr3.9" depart="33024.62" from="lane_entry_B" to="lane_exit_A" type="car_aggr3" /><trip id="r_and_alt_1_8_car_aggr3.10" depart="33126.08" from="lane_entry_B" to="lane_exit_A" type="car_aggr3" /><trip id="r_axs_tun_aEr_eWa_8_car_aggr3.0" depart="33310.83" from="lane_entry_A" to="lane_exit_B" type="car_aggr3" /><trip id="r_axs_tun_aAm_eGo_8_car_aggr4.3" depart="33348.74" from="lane_entry_A" to="lane_exit_B" type="car_aggr4" /><trip id="r_and_alt_1_8_car_aggr2.1" depart="33385.02" from="lane_entry_B" to="lane_exit_A" type="car_aggr2" /><trip id="r_and_alt_1_9_car_aggr2.0" depart="33390.36" from="lane_entry_B" to="lane_exit_A" type="car_aggr2" /><trip id="r_axs_tun_aEr_eGo_8_big_truck.0" depart="33503.23" from="lane_entry_A" to="lane_exit_B" type="big_truck" /><trip id="r_axs_tun_aEr_eGo_8_car_aggr2.0" depart="33596.62" from="lane_entry_A" to="lane_exit_B" type="car_aggr2" /><trip id="r_and_alt_1_9_car_aggr2.1" depart="33600.6" from="lane_entry_B" to="lane_exit_A" type="car_aggr2" /><trip id="r_axs_tun_aAm_eGo_8_car_aggr3.4" depart="33600.87" from="lane_entry_A" to="lane_exit_B" type="car_aggr3" /><trip id="r_and_alt_1_9_car_aggr2.2" depart="33607.93" from="lane_entry_B" to="lane_exit_A" type="car_aggr2" /><trip id="r_luz_tun_aAm_eWa_8_small_truck.1" depart="33693.29" from="lane_entry_A" to="lane_exit_B" type="small_truck" /><trip id="r_axs_tun_aAm_eGo_8_small_truck.1" depart="33819.87" from="lane_entry_A" to="lane_exit_B" type="small_truck" /><trip id="r_and_alt_1_9_car_aggr2.3" depart="34014.59" from="lane_entry_B" to="lane_exit_A" type="car_aggr2" /><trip id="r_axs_tun_aAm_eWa_9_small_truck.0" depart="34024.15" from="lane_entry_A" to="lane_exit_B" type="small_truck" /><trip id="r_luz_tun_aAm_eWa_8_car_aggr1.1" depart="34030.61" from="lane_entry_A" to="lane_exit_B" type="car_aggr1" /><trip id="r_and_alt_1_9_car_aggr3.0" depart="34041.93" from="lane_entry_B" to="lane_exit_A" type="car_aggr3" /><trip id="r_axs_tun_aEr_eGo_8_car_aggr4.0" depart="34102.16" from="lane_entry_A" to="lane_exit_B" type="car_aggr4" /><trip id="r_axs_tun_aEr_eWa_9_car_aggr5.0" depart="34193.53" from="lane_entry_A" to="lane_exit_B" type="car_aggr5" /><trip id="r_axs_tun_aEr_eWa_9_car_aggr3.0" depart="34233.61" from="lane_entry_A" to="lane_exit_B" type="car_aggr3" /><trip id="r_and_alt_1_9_small_truck.0" depart="34359.99" from="lane_entry_B" to="lane_exit_A" type="small_truck" /><trip id="r_and_alt_1_9_car_aggr1.0" depart="34366.34" from="lane_entry_B" to="lane_exit_A" type="car_aggr1" /><trip id="r_axs_tun_aEr_eGo_9_car_aggr3.0" depart="34374.89" from="lane_entry_A" to="lane_exit_B" type="car_aggr3" /><trip id="r_and_alt_1_9_car_aggr4.0" depart="34723.89" from="lane_entry_B" to="lane_exit_A" type="car_aggr4" /><trip id="r_and_alt_1_9_motorbike.0" depart="34727.85" from="lane_entry_B" to="lane_exit_A" type="motorbike" /><trip id="r_and_alt_1_9_car_aggr5.0" depart="34731.86" from="lane_entry_B" to="lane_exit_A" type="car_aggr5" /><trip id="r_luz_tun_aAm_eGo_8_car_aggr2.0" depart="34952.15" from="lane_entry_A" to="lane_exit_B" type="car_aggr2" /><trip id="r_luz_tun_aAm_eGo_9_car_aggr3.0" depart="34956.55" from="lane_entry_A" to="lane_exit_B" type="car_aggr3" /><trip id="r_luz_tun_aEr_eWa_9_car_aggr3.0" depart="34961.04" from="lane_entry_A" to="lane_exit_B" type="car_aggr3" /><trip id="r_axs_tun_aEr_eGo_9_motorbike.0" depart="34964.97" from="lane_entry_A" to="lane_exit_B" type="motorbike" /><trip id="r_and_alt_1_9_small_truck.1" depart="34973.14" from="lane_entry_B" to="lane_exit_A" type="small_truck" /><trip id="r_axs_tun_aAm_eGo_9_car_aggr2.0" depart="35056.42" from="lane_entry_A" to="lane_exit_B" type="car_aggr2" /><trip id="r_luz_tun_aEr_eWa_9_car_aggr4.0" depart="35060.19" from="lane_entry_A" to="lane_exit_B" type="car_aggr4" /><trip id="r_luz_tun_aEr_eWa_9_car_aggr5.0" depart="35063.32" from="lane_entry_A" to="lane_exit_B" type="car_aggr5" /><trip id="r_luz_tun_aEr_eWa_9_car_aggr5.1" depart="35066.54" from="lane_entry_A" to="lane_exit_B" type="car_aggr5" /><trip id="r_luz_tun_aEr_eWa_9_car_aggr5.2" depart="35069.73" from="lane_entry_A" to="lane_exit_B" type="car_aggr5" /><trip id="r_luz_tun_aAm_eWa_9_car_aggr5.0" depart="35072.91" from="lane_entry_A" to="lane_exit_B" type="car_aggr5" /><trip id="r_and_alt_1_9_car_aggr2.4" depart="35334.33" from="lane_entry_B" to="lane_exit_A" type="car_aggr2" /><trip id="r_luz_tun_aAm_eWa_9_car_aggr3.0" depart="35448.73" from="lane_entry_A" to="lane_exit_B" type="car_aggr3" /><trip id="r_axs_tun_aAm_eWa_9_small_truck.1" depart="35459.59" from="lane_entry_A" to="lane_exit_B" type="small_truck" /><trip id="r_axs_tun_aEr_eGo_9_car_aggr2.0" depart="35464.89" from="lane_entry_A" to="lane_exit_B" type="car_aggr2" /><trip id="r_axs_tun_aEr_eWa_9_small_truck.0" depart="35490.67" from="lane_entry_A" to="lane_exit_B" type="small_truck" /><trip id="r_luz_tun_aAm_eWa_9_car_aggr4.0" depart="35527.27" from="lane_entry_A" to="lane_exit_B" type="car_aggr4" /><trip id="r_axs_tun_aEr_eWa_9_car_aggr2.0" depart="35699.79" from="lane_entry_A" to="lane_exit_B" type="car_aggr2" /><trip id="r_luz_tun_aAm_eWa_9_car_aggr3.1" depart="35704.15" from="lane_entry_A" to="lane_exit_B" type="car_aggr3" /><trip id="r_axs_tun_aAm_eWa_9_car_aggr3.0" depart="35708.36" from="lane_entry_A" to="lane_exit_B" type="car_aggr3" /><trip id="r_axs_tun_aAm_eGo_9_car_aggr2.1" depart="35773.14" from="lane_entry_A" to="lane_exit_B" type="car_aggr2" /><trip id="r_luz_tun_aEr_eGo_9_car_aggr1.0" depart="35959.53" from="lane_entry_A" to="lane_exit_B" type="car_aggr1" /><trip id="r_luz_tun_aEr_eWa_9_car_aggr5.3" depart="35962.79" from="lane_entry_A" to="lane_exit_B" type="car_aggr5" /><trip id="r_axs_tun_aAm_eWa_9_car_aggr4.0" depart="35966.76" from="lane_entry_A" to="lane_exit_B" type="car_aggr4" /><trip id="r_axs_tun_aAm_eWa_9_car_aggr5.0" depart="36034.97" from="lane_entry_A" to="lane_exit_B" type="car_aggr5" /><trip id="r_axs_tun_aEr_eGo_9_car_aggr3.1" depart="36040.06" from="lane_entry_A" to="lane_exit_B" type="car_aggr3" /><trip id="r_and_alt_1_9_car_aggr4.1" depart="36104.82" from="lane_entry_B" to="lane_exit_A" type="car_aggr4" /><trip id="r_axs_tun_aAm_eGo_9_small_truck.0" depart="36173.15" from="lane_entry_A" to="lane_exit_B" type="small_truck" /><trip id="r_and_alt_1_9_small_truck.2" depart="36218.4" from="lane_entry_B" to="lane_exit_A" type="small_truck" /><trip id="r_and_alt_1_9_car_aggr3.1" depart="36222.78" from="lane_entry_B" to="lane_exit_A" type="car_aggr3" /><trip id="r_and_alt_1_9_car_aggr2.5" depart="36228.03" from="lane_entry_B" to="lane_exit_A" type="car_aggr2" /><trip id="r_luz_tun_aEr_eGo_9_small_truck.0" depart="36331.39" from="lane_entry_A" to="lane_exit_B" type="small_truck" /><trip id="r_luz_tun_aAm_eGo_9_car_aggr4.0" depart="36335.15" from="lane_entry_A" to="lane_exit_B" type="car_aggr4" /><trip id="r_axs_tun_aEr_eWa_9_car_aggr3.1" depart="36416.15" from="lane_entry_A" to="lane_exit_B" type="car_aggr3" /><trip id="r_axs_tun_aEr_eGo_9_car_aggr5.0" depart="36419.31" from="lane_entry_A" to="lane_exit_B" type="car_aggr5" /><trip id="r_and_alt_1_9_big_truck.0" depart="36451.14" from="lane_entry_B" to="lane_exit_A" type="big_truck" /><trip id="r_axs_tun_aEr_eWa_9_car_aggr3.2" depart="36586.79" from="lane_entry_A" to="lane_exit_B" type="car_aggr3" /><trip id="r_luz_tun_aEr_eGo_9_car_aggr3.0" depart="36591.1" from="lane_entry_A" to="lane_exit_B" type="car_aggr3" /><trip id="r_luz_tun_aAm_eWa_9_car_aggr4.1" depart="36594.74" from="lane_entry_A" to="lane_exit_B" type="car_aggr4" /><trip id="r_luz_tun_aAm_eGo_9_car_aggr3.1" depart="36599.15" from="lane_entry_A" to="lane_exit_B" type="car_aggr3" /><trip id="r_luz_tun_aEr_eWa_9_small_truck.0" depart="36731.1" from="lane_entry_A" to="lane_exit_B" type="small_truck" /><trip id="r_axs_tun_aAm_eWa_9_car_aggr2.0" depart="36736.36" from="lane_entry_A" to="lane_exit_B" type="car_aggr2" /><trip id="r_luz_tun_aAm_eGo_9_car_aggr4.1" depart="36740.0" from="lane_entry_A" to="lane_exit_B" type="car_aggr4" /><trip id="r_luz_tun_aEr_eGo_9_car_aggr3.1" depart="36824.39" from="lane_entry_A" to="lane_exit_B" type="car_aggr3" /><trip id="r_luz_tun_aEr_eWa_9_small_truck.1" depart="36985.49" from="lane_entry_A" to="lane_exit_B" type="small_truck" /><trip id="r_axs_tun_aEr_eWa_9_car_aggr2.1" depart="37001.43" from="lane_entry_A" to="lane_exit_B" type="car_aggr2" /><trip id="r_luz_tun_aAm_eGo_9_car_aggr2.0" depart="37075.53" from="lane_entry_A" to="lane_exit_B" type="car_aggr2" /><trip id="r_luz_tun_aEr_eWa_9_car_aggr1.0" depart="37202.12" from="lane_entry_A" to="lane_exit_B" type="car_aggr1" /><trip id="r_and_alt_1_10_car_aggr1.0" depart="37238.35" from="lane_entry_B" to="lane_exit_A" type="car_aggr1" /><trip id="r_and_alt_1_10_car_aggr3.0" depart="37242.95" from="lane_entry_B" to="lane_exit_A" type="car_aggr3" /><trip id="r_and_alt_1_10_car_aggr5.0" depart="37246.24" from="lane_entry_B" to="lane_exit_A" type="car_aggr5" /><trip id="r_axs_tun_aEr_eGo_9_car_aggr1.0" depart="37354.09" from="lane_entry_A" to="lane_exit_B" type="car_aggr1" /><trip id="r_luz_tun_aEr_eWa_9_