<?xml version='1.0' encoding='utf-8'?>
<trips><trip id="r_axs_tun_aEr_eGo_1_car_aggr4.0" depart="4828.67" from="lane_entry_A" to="lane_exit_C" type="car_aggr4" /><trip id="r_luz_tun_aAm_eGo_1_car_aggr3.0" depart="7045.99" from="lane_entry_B" to="lane_exit_C" type="car_aggr3" /><trip id="r_luz_tun_aAm_eGo_1_big_truck.0" depart="7112.76" from="lane_entry_B" to="lane_exit_C" type="big_truck" /><trip id="r_luz_tun_aEr_eAm_1_car_aggr4.0" depart="7413.87" from="lane_entry_A" to="lane_exit_B" type="car_aggr4" /><trip id="r_luz_tun_aEr_eAm_1_car_aggr3.1" depart="7478.4" from="lane_entry_A" to="lane_exit_B" type="car_aggr3" /><trip id="r_luz_tun_aEr_eAm_1_car_aggr3.0" depart="7621.58" from="lane_entry_A" to="lane_exit_B" type="car_aggr3" /><trip id="r_axs_tun_aEr_eGo_1_car_aggr3.0" depart="7983.66" from="lane_entry_A" to="lane_exit_C" type="car_aggr3" /><trip id="r_axs_tun_aEr_eGo_1_small_truck.0" depart="8145.36" from="lane_entry_A" to="lane_exit_C" type="small_truck" /><trip id="r_and_alt_1_2_car_aggr4.0" depart="9847.31" from="lane_entry_C" to="lane_exit_A" type="car_aggr4" /><trip id="r_axs_tun_aEr_eWa_2_car_aggr5.0" depart="11209.8" from="lane_entry_A" to="lane_exit_C" type="car_aggr5" /><trip id="r_ams_ers_1_3_big_truck.0" depart="12568.19" from="lane_entry_C" to="lane_exit_A" type="big_truck" /><trip id="r_luz_tun_aEr_eAm_3_car_aggr5.0" depart="12806.93" from="lane_entry_A" to="lane_exit_B" type="car_aggr5" /><trip id="r_tun_axs_KS_____3_car_aggr2.0" depart="13437.07" from="lane_entry_C" to="lane_exit_A" type="car_aggr2" /><trip id="r_tun_axs_KS_____3_car_aggr3.0" depart="13915.94" from="lane_entry_C" to="lane_exit_A" type="car_aggr3" /><trip id="r_tun_axs_KS_____3_car_aggr3.1" depart="14642.04" from="lane_entry_C" to="lane_exit_A" type="car_aggr3" /><trip id="r_tun_axs_KS_____3_car_aggr3.2" depart="14907.34" from="lane_entry_C" to="lane_exit_A" type="car_aggr3" /><trip id="r_ams_ers_1_4_car_aggr2.0" depart="15348.55" from="lane_entry_C" to="lane_exit_A" type="car_aggr2" /><trip id="r_luz_tun_aEr_eAm_4_car_aggr1.0" depart="16038.77" from="lane_entry_A" to="lane_exit_B" type="car_aggr1" /><trip id="r_ams_ers_1_4_car_aggr2.1" depart="16119.97" from="lane_entry_C" to="lane_exit_A" type="car_aggr2" /><trip id="r_luz_tun_aAm_eWa_4_car_aggr4.0" depart="16292.93" from="lane_entry_B" to="lane_exit_C" type="car_aggr4" /><trip id="r_luz_tun_aAm_eWa_4_car_aggr3.0" depart="16833.17" from="lane_entry_B" to="lane_exit_C" type="car_aggr3" /><trip id="r_axs_tun_aEr_eWa_4_car_aggr3.0" depart="16876.01" from="lane_entry_A" to="lane_exit_C" type="car_aggr3" /><trip id="r_luz_tun_aAm_eWa_4_small_truck.0" depart="16946.08" from="lane_entry_B" to="lane_exit_C" type="small_truck" /><trip id="r_luz_tun_aAm_eWa_4_car_aggr3.1" depart="17103.85" from="lane_entry_B" to="lane_exit_C" type="car_aggr3" /><trip id="r_and_alt_1_4_car_aggr3.0" depart="17467.31" from="lane_entry_C" to="lane_exit_A" type="car_aggr3" /><trip id="r_luz_tun_aEr_eWa_4_car_aggr3.0" depart="18003.92" from="lane_entry_A" to="lane_exit_C" type="car_aggr3" /><trip id="r_luz_tun_aEr_eWa_4_car_aggr5.0" depart="18041.07" from="lane_entry_A" to="lane_exit_C" type="car_aggr5" /><trip id="r_axs_tun_aAm_eWa_4_big_truck.0" depart="18537.19" from="lane_entry_B" to="lane_exit_C" type="big_truck" /><trip id="r_and_alt_1_4_car_aggr4.0" depart="19085.66" from="lane_entry_C" to="lane_exit_A" type="car_aggr4" /><trip id="r_axs_tun_aEr_eAm_5_small_truck.0" depart="19917.51" from="lane_entry_A" to="lane_exit_B" type="small_truck" /><trip id="r_luz_tun_aEr_eAm_5_car_aggr1.0" depart="20312.89" from="lane_entry_A" to="lane_exit_B" type="car_aggr1" /><trip id="r_axs_tun_aEr_eAm_5_car_aggr2.0" depart="20456.16" from="lane_entry_A" to="lane_exit_B" type="car_aggr2" /><trip id="r_axs_tun_aEr_eAm_5_big_truck.0" depart="21035.95" from="lane_entry_A" to="lane_exit_B" type="big_truck" /><trip id="r_axs_tun_aEr_eAm_5_car_aggr1.0" depart="21644.37" from="lane_entry_A" to="lane_exit_B" type="car_aggr1" /><trip id="r_ams_ers_1_6_car_aggr5.0" depart="21673.63" from="lane_entry_C" to="lane_exit_A" type="car_aggr5" /><trip id="r_ams_ers_1_6_car_aggr3.0" depart="21739.46" from="lane_entry_C" to="lane_exit_A" type="car_aggr3" /><trip id="r_ams_ers_1_6_car_aggr2.0" depart="21842.06" from="lane_entry_C" to="lane_exit_A" type="car_aggr2" /><trip id="r_ams_ers_1_6_car_aggr4.0" depart="21975.68" from="lane_entry_C" to="lane_exit_A" type="car_aggr4" /><trip id="r_luz_tun_aEr_eAm_5_car_aggr1.1" depart="22055.45" from="lane_entry_A" to="lane_exit_B" type="car_aggr1" /><trip id="r_ams_ers_1_6_car_aggr1.0" depart="22216.31" from="lane_entry_C" to="lane_exit_A" type="car_aggr1" /><trip id="r_ams_ers_1_6_car_aggr5.1" depart="22236.41" from="lane_entry_C" to="lane_exit_A" type="car_aggr5" /><trip id="r_ams_ers_1_6_car_aggr5.2" depart="22239.44" from="lane_entry_C" to="lane_exit_A" type="car_aggr5" /><trip id="r_axs_tun_aEr_eAm_5_car_aggr3.0" depart="22276.64" from="lane_entry_A" to="lane_exit_B" type="car_aggr3" /><trip id="r_alt_and_1_6_car_aggr3.0" depart="22426.8" from="lane_entry_A" to="lane_exit_C" type="car_aggr3" /><trip id="r_ams_ers_1_6_car_aggr2.1" depart="22476.5" from="lane_entry_C" to="lane_exit_A" type="car_aggr2" /><trip id="r_ams_ers_1_6_car_aggr4.1" depart="22603.66" from="lane_entry_C" to="lane_exit_A" type="car_aggr4" /><trip id="r_ams_ers_1_6_car_aggr4.2" depart="22786.67" from="lane_entry_C" to="lane_exit_A" type="car_aggr4" /><trip id="r_ams_ers_1_6_big_truck.0" depart="22972.41" from="lane_entry_C" to="lane_exit_A" type="big_truck" /><trip id="r_ams_ers_1_6_car_aggr3.1" depart="22998.31" from="lane_entry_C" to="lane_exit_A" type="car_aggr3" /><trip id="r_and_alt_1_6_car_aggr2.0" depart="23003.98" from="lane_entry_C" to="lane_exit_A" type="car_aggr2" /><trip id="r_ams_ers_1_6_car_aggr2.2" depart="23280.0" from="lane_entry_C" to="lane_exit_A" type="car_aggr2" /><trip id="r_luz_tun_aEr_eAm_6_car_aggr2.0" depart="23293.57" from="lane_entry_A" to="lane_exit_B" type="car_aggr2" /><trip id="r_and_alt_1_6_car_aggr3.0" depart="23300.19" from="lane_entry_C" to="lane_exit_A" type="car_aggr3" /><trip id="r_ams_ers_1_6_car_aggr4.3" depart="23358.63" from="lane_entry_C" to="lane_exit_A" type="car_aggr4" /><trip id="r_alt_and_1_6_big_truck.0" depart="23372.36" from="lane_entry_A" to="lane_exit_C" type="big_truck" /><trip id="r_and_alt_1_6_car_aggr3.1" depart="23499.87" from="lane_entry_C" to="lane_exit_A" type="car_aggr3" /><trip id="r_luz_tun_aEr_eAm_6_car_aggr3.0" depart="23511.12" from="lane_entry_A" to="lane_exit_B" type="car_aggr3" /><trip id="r_alt_and_1_6_car_aggr4.0" depart="23684.62" from="lane_entry_A" to="lane_exit_C" type="car_aggr4" /><trip id="r_alt_and_1_6_small_truck.0" depart="23822.53" from="lane_entry_A" to="lane_exit_C" type="small_truck" /><trip id="r_luz_tun_aEr_eAm_6_car_aggr2.1" depart="23875.88" from="lane_entry_A" to="lane_exit_B" type="car_aggr2" /><trip id="r_luz_tun_aEr_eAm_6_car_aggr1.0" depart="23885.65" from="lane_entry_A" to="lane_exit_B" type="car_aggr1" /><trip id="r_luz_tun_aEr_eAm_6_car_aggr3.1" depart="23889.58" from="lane_entry_A" to="lane_exit_B" type="car_aggr3" /><trip id="r_ams_ers_1_6_car_aggr2.3" depart="23978.08" from="lane_entry_C" to="lane_exit_A" type="car_aggr2" /><trip id="r_luz_tun_aEr_eAm_6_car_aggr2.2" depart="24022.9" from="lane_entry_A" to="lane_exit_B" type="car_aggr2" /><trip id="r_luz_tun_aEr_eAm_6_car_aggr3.2" depart="24230.5" from="lane_entry_A" to="lane_exit_B" type="car_aggr3" /><trip id="r_ams_ers_1_6_car_aggr3.2" depart="24263.91" from="lane_entry_C" to="lane_exit_A" type="car_aggr3" /><trip id="r_ams_ers_1_6_car_aggr2.4" depart="24418.81" from="lane_entry_C" to="lane_exit_A" type="car_aggr2" /><trip id="r_and_alt_1_6_car_aggr3.2" depart="24484.57" from="lane_entry_C" to="lane_exit_A" type="car_aggr3" /><trip id="r_luz_tun_aEr_eAm_6_car_aggr3.3" depart="24585.86" from="lane_entry_A" to="lane_exit_B" type="car_aggr3" /><trip id="r_ams_ers_1_6_car_aggr2.5" depart="24636.85" from="lane_entry_C" to="lane_exit_A" type="car_aggr2" /><trip id="r_ams_ers_1_6_car_aggr3.3" depart="24709.54" from="lane_entry_C" to="lane_exit_A" type="car_aggr3" /><trip id="r_ams_ers_1_6_car_aggr4.4" depart="24781.05" from="lane_entry_C" to="lane_exit_A" type="car_aggr4" /><trip id="r_ams_ers_1_6_car_aggr3.4" depart="24890.64" from="lane_entry_C" to="lane_exit_A" type="car_aggr3" /><trip id="r_ams_ers_1_6_car_aggr3.5" depart="25046.07" from="lane_entry_C" to="lane_exit_A" type="car_aggr3" /><trip id="r_ams_ers_1_6_car_aggr3.6" depart="25065.98" from="lane_entry_C" to="lane_exit_A" type="car_aggr3" /><trip id="r_alt_and_1_6_car_aggr3.1" depart="25151.5" from="lane_entry_A" to="lane_exit_C" type="car_aggr3" /><trip id="r_and_alt_1_6_small_truck.0" depart="25218.44" from="lane_entry_C" to="lane_exit_A" type="small_truck" /><trip id="r_and_alt_1_6_car_aggr4.0" depart="25222.24" from="lane_entry_C" to="lane_exit_A" type="car_aggr4" /><trip id="r_alt_and_1_6_small_truck.1" depart="25230.85" from="lane_entry_A" to="lane_exit_C" type="small_truck" /><trip id="r_ams_ers_1_7_car_aggr4.0" depart="25277.36" from="lane_entry_C" to="lane_exit_A" type="car_aggr4" /><trip id="r_luz_tun_aEr_eAm_6_car_aggr4.0" depart="25418.31" from="lane_entry_A" to="lane_exit_B" type="car_aggr4" /><trip id="r_ams_ers_1_7_car_aggr3.0" depart="25425.99" from="lane_entry_C" to="lane_exit_A" type="car_aggr3" /><trip id="r_ams_ers_1_7_car_aggr1.0" depart="25451.0" from="lane_entry_C" to="lane_exit_A" type="car_aggr1" /><trip id="r_and_alt_1_6_car_aggr2.1" depart="25512.26" from="lane_entry_C" to="lane_exit_A" type="car_aggr2" /><trip id="r_ams_ers_1_7_car_aggr3.1" depart="25516.35" from="lane_entry_C" to="lane_exit_A" type="car_aggr3" /><trip id="r_ams_ers_1_7_car_aggr3.2" depart="25525.1" from="lane_entry_C" to="lane_exit_A" type="car_aggr3" /><trip id="r_ams_ers_1_7_small_truck.0" depart="25556.24" from="lane_entry_C" to="lane_exit_A" type="small_truck" /><trip id="r_ams_ers_1_7_car_aggr3.3" depart="25560.49" from="lane_entry_C" to="lane_exit_A" type="car_aggr3" /><trip id="r_and_alt_1_6_car_aggr5.0" depart="25590.59" from="lane_entry_C" to="lane_exit_A" type="car_aggr5" /><trip id="r_luz_tun_aEr_eAm_6_big_truck.0" depart="25633.71" from="lane_entry_A" to="lane_exit_B" type="big_truck" /><trip id="r_luz_tun_aEr_eAm_6_car_aggr3.4" depart="25657.92" from="lane_entry_A" to="lane_exit_B" type="car_aggr3" /><trip id="r_luz_tun_aEr_eAm_6_car_aggr5.0" depart="25669.6" from="lane_entry_A" to="lane_exit_B" type="car_aggr5" /><trip id="r_luz_tun_aEr_eAm_6_car_aggr2.3" depart="25736.69" from="lane_entry_A" to="lane_exit_B" type="car_aggr2" /><trip id="r_ams_ers_1_7_car_aggr2.0" depart="25796.45" from="lane_entry_C" to="lane_exit_A" type="car_aggr2" /><trip id="r_ams_ers_1_7_car_aggr3.4" depart="25853.71" from="lane_entry_C" to="lane_exit_A" type="car_aggr3" /><trip id="r_ams_ers_1_7_car_aggr4.1" depart="25859.97" from="lane_entry_C" to="lane_exit_A" type="car_aggr4" /><trip id="r_ams_ers_1_7_small_truck.1" depart="25900.7" from="lane_entry_C" to="lane_exit_A" type="small_truck" /><trip id="r_ams_ers_1_7_car_aggr1.1" depart="25939.62" from="lane_entry_C" to="lane_exit_A" type="car_aggr1" /><trip id="r_ams_ers_1_7_car_aggr4.2" depart="25943.45" from="lane_entry_C" to="lane_exit_A" type="car_aggr4" /><trip id="r_ams_ers_1_7_car_aggr5.0" depart="26012.61" from="lane_entry_C" to="lane_exit_A" type="car_aggr5" /><trip id="r_ams_ers_1_7_car_aggr3.5" depart="26028.01" from="lane_entry_C" to="lane_exit_A" type="car_aggr3" /><trip id="r_ams_ers_1_7_car_aggr2.1" depart="26053.9" from="lane_entry_C" to="lane_exit_A" type="car_aggr2" /><trip id="r_luz_tun_aEr_eAm_6_car_aggr5.1" depart="26088.48" from="lane_entry_A" to="lane_exit_B" type="car_aggr5" /><trip id="r_luz_tun_aEr_eAm_6_car_aggr2.4" depart="26118.42" from="lane_entry_A" to="lane_exit_B" type="car_aggr2" /><trip id="r_ams_ers_1_7_car_aggr3.6" depart="26179.6" from="lane_entry_C" to="lane_exit_A" type="car_aggr3" /><trip id="r_ams_ers_1_7_car_aggr4.3" depart="26215.19" from="lane_entry_C" to="lane_exit_A" type="car_aggr4" /><trip id="r_luz_tun_aEr_eAm_6_car_aggr1.1" depart="26335.11" from="lane_entry_A" to="lane_exit_B" type="car_aggr1" /><trip id="r_ams_ers_1_7_car_aggr3.7" depart="26414.06" from="lane_entry_C" to="lane_exit_A" type="car_aggr3" /><trip id="r_ams_ers_1_7_car_aggr3.8" depart="26436.39" from="lane_entry_C" to="lane_exit_A" type="car_aggr3" /><trip id="r_luz_tun_aEr_eAm_6_car_aggr1.2" depart="26455.49" from="lane_entry_A" to="lane_exit_B" type="car_aggr1" /><trip id="r_ams_ers_1_7_big_truck.0" depart="26514.26" from="lane_entry_C" to="lane_exit_A" type="big_truck" /><trip id="r_ams_ers_1_7_car_aggr2.2" depart="26616.55" from="lane_entry_C" to="lane_exit_A" type="car_aggr2" /><trip id="r_luz_tun_aAm_eWa_7_motorbike.0" depart="26625.2" from="lane_entry_B" to="lane_exit_C" type="motorbike" /><trip id="r_ams_ers_1_7_car_aggr4.4" depart="26628.03" from="lane_entry_C" to="lane_exit_A" type="car_aggr4" /><trip id="r_luz_tun_aEr_eAm_7_small_truck.0" depart="26692.0" from="lane_entry_A" to="lane_exit_B" type="small_truck" /><trip id="r_ams_ers_1_7_big_truck.1" depart="26745.5" from="lane_entry_C" to="lane_exit_A" type="big_truck" /><trip id="r_luz_tun_aEr_eAm_7_car_aggr3.0" depart="26777.05" from="lane_entry_A" to="lane_exit_B" type="car_aggr3" /><trip id="r_luz_tun_aEr_eWa_7_small_truck.0" depart="26780.47" from="lane_entry_A" to="lane_exit_C" type="small_truck" /><trip id="r_luz_tun_aEr_eAm_7_car_aggr3.1" depart="26834.91" from="lane_entry_A" to="lane_exit_B" type="car_aggr3" /><trip id="r_luz_tun_aEr_eAm_7_small_truck.2" depart="26838.74" from="lane_entry_A" to="lane_exit_B" type="small_truck" /><trip id="r_ams_ers_1_7_car_aggr2.3" depart="26842.17" from="lane_entry_C" to="lane_exit_A" type="car_aggr2" /><trip id="r_luz_tun_aEr_eAm_7_car_aggr2.0" depart="26845.67" from="lane_entry_A" to="lane_exit_B" type="car_aggr2" /><trip id="r_luz_tun_aEr_eAm_7_car_aggr4.1" depart="26860.35" from="lane_entry_A" to="lane_exit_B" type="car_aggr4" /><trip id="r_ams_ers_1_7_small_truck.2" depart="26888.04" from="lane_entry_C" to="lane_exit_A" type="small_truck" /><trip id="r_luz_tun_aEr_eAm_7_small_truck.3" depart="26888.39" from="lane_entry_A" to="lane_exit_B" type="small_truck" /><trip id="r_and_alt_1_7_car_aggr3.0" depart="26892.39" from="lane_entry_C" to="lane_exit_A" type="car_aggr3" /><trip id="r_and_alt_1_7_car_aggr2.0" depart="26898.01" from="lane_entry_C" to="lane_exit_A" type="car_aggr2" /><trip id="r_and_alt_1_7_car_aggr5.0" depart="26901.17" from="lane_entry_C" to="lane_exit_A" type="car_aggr5" /><trip id="r_luz_tun_aEr_eAm_7_small_truck.1" depart="26966.1" from="lane_entry_A" to="lane_exit_B" type="small_truck" /><trip id="r_luz_tun_aEr_eAm_7_car_aggr5.0" depart="26969.14" from="lane_entry_A" to="lane_exit_B" type="car_aggr5" /><trip id="r_ams_ers_1_7_car_aggr4.5" depart="26983.87" from="lane_entry_C" to="lane_exit_A" type="car_aggr4" /><trip id="r_luz_tun_aAm_eGo_7_car_aggr3.0" depart="27015.1" from="lane_entry_B" to="lane_exit_C" type="car_aggr3" /><trip id="r_ams_ers_1_7_car_aggr3.9" depart="27084.06" from="lane_entry_C" to="lane_exit_A" type="car_aggr3" /><trip id="r_luz_tun_aEr_eAm_7_car_aggr4.0" depart="27228.24" from="lane_entry_A" to="lane_exit_B" type="car_aggr4" /><trip id="r_alt_and_1_7_car_aggr4.0" depart="27231.82" from="lane_entry_A" to="lane_exit_C" type="car_aggr4" /><trip id="r_ams_ers_1_7_car_aggr4.6" depart="27260.27" from="lane_entry_C" to="lane_exit_A" type="car_aggr4" /><trip id="r_ams_ers_1_7_car_aggr4.7" depart="27263.83" from="lane_entry_C" to="lane_exit_A" type="car_aggr4" /><trip id="r_ams_ers_1_7_car_aggr4.8" depart="27278.04" from="lane_entry_C" to="lane_exit_A" type="car_aggr4" /><trip id="r_luz_tun_aEr_eAm_7_small_truck.4" depart="27340.46" from="lane_entry_A" to="lane_exit_B" type="small_truck" /><trip id="r_luz_tun_aAm_eGo_7_car_aggr1.1" depart="27384.07" from="lane_entry_B" to="lane_exit_C" type="car_aggr1" /><trip id="r_luz_tun_aAm_eGo_7_car_aggr1.0" depart="27397.67" from="lane_entry_B" to="lane_exit_C" type="car_aggr1" /><trip id="r_and_alt_1_7_big_truck.0" depart="27399.51" from="lane_entry_C" to="lane_exit_A" type="big_truck" /><trip id="r_and_alt_1_7_car_aggr1.0" depart="27405.88" from="lane_entry_C" to="lane_exit_A" type="car_aggr1" /><trip id="r_luz_tun_aEr_eAm_7_car_aggr3.2" depart="27412.06" from="lane_entry_A" to="lane_exit_B" type="car_aggr3" /><trip id="r_luz_tun_aEr_eAm_7_car_aggr4.2" depart="27415.4" from="lane_entry_A" to="lane_exit_B" type="car_aggr4" /><trip id="r_luz_tun_aEr_eAm_7_car_aggr4.3" depart="27418.92" from="lane_entry_A" to="lane_exit_B" type="car_aggr4" /><trip id="r_luz_tun_aEr_eAm_7_car_aggr3.3" depart="27423.56" from="lane_entry_A" to="lane_exit_B" type="car_aggr3" /><trip id="r_luz_tun_aEr_eAm_7_car_aggr3.5" depart="27427.6" from="lane_entry_A" to="lane_exit_B" type="car_aggr3" /><trip id="r_luz_tun_aEr_eAm_7_car_aggr3.4" depart="27432.0" from="lane_entry_A" to="lane_exit_B" type="car_aggr3" /><trip id="r_luz_tun_aEr_eAm_7_car_aggr3.6" depart="27436.36" from="lane_entry_A" to="lane_exit_B" type="car_aggr3" /><trip id="r_luz_tun_aEr_eAm_7_car_aggr2.1" depart="27443.04" from="lane_entry_A" to="lane_exit_B" type="car_aggr2" /><trip id="r_luz_tun_aEr_eGo_7_car_aggr3.0" depart="27446.67" from="lane_entry_A" to="lane_exit_C" type="car_aggr3" /><trip id="r_luz_tun_aAm_eGo_7_car_aggr3.1" depart="27509.13" from="lane_entry_B" to="lane_exit_C" type="car_aggr3" /><trip id="r_ams_ers_1_7_car_aggr3.10" depart="27572.78" from="lane_entry_C" to="lane_exit_A" type="car_aggr3" /><trip id="r_luz_tun_aEr_eAm_7_car_aggr2.2" depart="27589.04" from="lane_entry_A" to="lane_exit_B" type="car_aggr2" /><trip id="r_and_alt_1_7_big_truck.1" depart="27616.52" from="lane_entry_C" to="lane_exit_A" type="big_truck" /><trip id="r_luz_tun_aEr_eAm_7_small_truck.5" depart="27617.91" from="lane_entry_A" to="lane_exit_B" type="small_truck" /><trip id="r_luz_tun_aEr_eAm_7_car_aggr2.3" depart="27622.71" from="lane_entry_A" to="lane_exit_B" type="car_aggr2" /><trip id="r_luz_tun_aEr_eAm_7_car_aggr3.7" depart="27701.09" from="lane_entry_A" to="lane_exit_B" type="car_aggr3" /><trip id="r_luz_tun_aEr_eAm_7_car_aggr3.8" depart="27704.9" from="lane_entry_A" to="lane_exit_B" type="car_aggr3" /><trip id="r_alt_and_1_7_car_aggr1.0" depart="27710.96" from="lane_entry_A" to="lane_exit_C" type="car_aggr1" /><trip id="r_luz_tun_aEr_eAm_7_big_truck.0" depart="27730.27" from="lane_entry_A" to="lane_exit_B" type="big_truck" /><trip id="r_luz_tun_aEr_eAm_7_car_aggr3.9" depart="27734.47" from="lane_entry_A" to="lane_exit_B" type="car_aggr3" /><trip id="r_luz_tun_aEr_eAm_7_car_aggr3.10" depart="27739.31" from="lane_entry_A" to="lane_exit_B" type="car_aggr3" /><trip id="r_ams_ers_1_7_car_aggr2.4" depart="27739.4" from="lane_entry_C" to="lane_exit_A" type="car_aggr2" /><trip id="r_luz_tun_aEr_eAm_7_small_truck.6" depart="27818.84" from="lane_entry_A" to="lane_exit_B" type="small_truck" /><trip id="r_luz_tun_aEr_eAm_7_car_aggr3.11" depart="27822.61" from="lane_entry_A" to="lane_exit_B" type="car_aggr3" /><trip id="r_luz_tun_aAm_eGo_7_car_aggr1.2" depart="27824.52" from="lane_entry_B" to="lane_exit_C" type="car_aggr1" /><trip id="r_luz_tun_aAm_eGo_7_car_aggr2.0" depart="27853.01" from="lane_entry_B" to="lane_exit_C" type="car_aggr2" /><trip id="r_luz_tun_aEr_eWa_7_car_aggr1.0" depart="27876.68" from="lane_entry_A" to="lane_exit_C" type="car_aggr1" /><trip id="r_luz_tun_aEr_eAm_7_car_aggr3.13" depart="27883.4" from="lane_entry_A" to="lane_exit_B" type="car_aggr3" /><trip id="r_and_alt_1_7_car_aggr1.1" depart="27919.31" from="lane_entry_C" to="lane_exit_A" type="car_aggr1" /><trip id="r_and_alt_1_7_car_aggr5.1" depart="27922.46" from="lane_entry_C" to="lane_exit_A" type="car_aggr5" /><trip id="r_and_alt_1_7_car_aggr3.1" depart="27927.29" from="lane_entry_C" to="lane_exit_A" type="car_aggr3" /><trip id="r_and_alt_1_7_car_aggr4.0" depart="27931.03" from="lane_entry_C" to="lane_exit_A" type="car_aggr4" /><trip id="r_and_alt_1_7_car_aggr5.2" depart="27934.25" from="lane_entry_C" to="lane_exit_A" type="car_aggr5" /><trip id="r_and_alt_1_7_car_aggr3.2" depart="27939.18" from="lane_entry_C" to="lane_exit_A" type="car_aggr3" /><trip id="r_luz_tun_aEr_eAm_7_car_aggr3.12" depart="27939.73" from="lane_entry_A" to="lane_exit_B" type="car_aggr3" /><trip id="r_and_alt_1_7_motorbike.0" depart="27943.07" from="lane_entry_C" to="lane_exit_A" type="motorbike" /><trip id="r_luz_tun_aEr_eAm_7_car_aggr1.0" depart="27946.22" from="lane_entry_A" to="lane_exit_B" type="car_aggr1" /><trip id="r_luz_tun_aEr_eAm_7_motorbike.0" depart="27950.06" from="lane_entry_A" to="lane_exit_B" type="motorbike" /><trip id="r_ams_ers_1_7_car_aggr3.11" depart="27975.92" from="lane_entry_C" to="lane_exit_A" type="car_aggr3" /><trip id="r_luz_tun_aEr_eAm_7_small_truck.7" depart="27978.12" from="lane_entry_A" to="lane_exit_B" type="small_truck" /><trip id="r_ams_ers_1_7_car_aggr2.5" depart="27981.59" from="lane_entry_C" to="lane_exit_A" type="car_aggr2" /><trip id="r_luz_tun_aEr_eWa_7_car_aggr3.0" depart="27981.92" from="lane_entry_A" to="lane_exit_C" type="car_aggr3" /><trip id="r_luz_tun_aEr_eWa_7_car_aggr4.1" depart="27985.43" from="lane_entry_A" to="lane_exit_C" type="car_aggr4" /><trip id="r_ams_ers_1_7_car_aggr2.6" depart="27987.04" from="lane_entry_C" to="lane_exit_A" type="car_aggr2" /><trip id="r_luz_tun_aEr_eAm_7_car_aggr3.14" depart="27989.69" from="lane_entry_A" to="lane_exit_B" type="car_aggr3" /><trip id="r_luz_tun_aEr_eAm_7_car_aggr4.5" depart="27994.46" from="lane_entry_A" to="lane_exit_B" type="car_aggr4" /><trip id="r_luz_tun_aEr_eGo_7_car_aggr3.1" depart="27998.56" from="lane_entry_A" to="lane_exit_C" type="car_aggr3" /><trip id="r_luz_tun_aEr_eWa_7_car_aggr4.0" depart="28002.26" from="lane_entry_A" to="lane_exit_C" type="car_aggr4" /><trip id="r_ams_ers_1_7_small_truck.3" depart="28003.71" from="lane_entry_C" to="lane_exit_A" type="small_truck" /><trip id="r_ams_ers_1_7_car_aggr1.2" depart="28010.52" from="lane_entry_C" to="lane_exit_A" type="car_aggr1" /><trip id="r_ams_ers_1_7_car_aggr1.3" depart="28016.32" from="lane_entry_C" to="lane_exit_A" type="car_aggr1" /><trip id="r_ams_ers_1_7_car_aggr5.1" depart="28019.57" from="lane_entry_C" to="lane_exit_A" type="car_aggr5" /><trip id="r_luz_tun_aEr_eAm_7_big_truck.1" depart="28046.53" from="lane_entry_A" to="lane_exit_B" type="big_truck" /><trip id="r_and_alt_1_7_car_aggr3.3" depart="28080.73" from="lane_entry_C" to="lane_exit_A" type="car_aggr3" /><trip id="r_luz_tun_aAm_eWa_7_car_aggr3.0" depart="28087.1" from="lane_entry_B" to="lane_exit_C" type="car_aggr3" /><trip id="r_ams_ers_1_7_car_aggr1.4" depart="28091.54" from="lane_entry_C" to="lane_exit_A" type="car_aggr1" /><trip id="r_luz_tun_aAm_eGo_7_small_truck.0" depart="28138.01" from="lane_entry_B" to="lane_exit_C" type="small_truck" /><trip id="r_luz_tun_aEr_eAm_7_car_aggr4.4" depart="28162.17" from="lane_entry_A" to="lane_exit_B" type="car_aggr4" /><trip id="r_luz_tun_aEr_eAm_7_car_aggr1.1" depart="28168.24" from="lane_entry_A" to="lane_exit_B" type="car_aggr1" /><trip id="r_and_alt_1_7_car_aggr1.2" depart="28169.38" from="lane_entry_C" to="lane_exit_A" type="car_aggr1" /><trip id="r_luz_tun_aEr_eWa_7_big_truck.0" depart="28193.42" from="lane_entry_A" to="lane_exit_C" type="big_truck" /><trip id="r_luz_tun_aEr_eWa_7_car_aggr2.0" depart="28198.43" from="lane_entry_A" to="lane_exit_C" type="car_aggr2" /><trip id="r_luz_tun_aEr_eAm_7_car_aggr4.7" depart="28202.08" from="lane_entry_A" to="lane_exit_B" type="car_aggr4" /><trip id="r_luz_tun_aEr_eAm_7_car_aggr4.6" depart="28206.6" from="lane_entry_A" to="lane_exit_B" type="car_aggr4" /><trip id="r_luz_tun_aEr_eAm_7_car_aggr2.4" depart="28212.39" from="lane_entry_A" to="lane_exit_B" type="car_aggr2" /><trip id="r_luz_tun_aEr_eAm_7_car_aggr5.1" depart="28215.29" from="lane_entry_A" to="lane_exit_B" type="car_aggr5" /><trip id="r_luz_tun_aEr_eAm_7_car_aggr3.16" depart="28219.77" from="lane_entry_A" to="lane_exit_B" type="car_aggr3" /><trip id="r_ams_ers_1_7_car_aggr3.12" depart="28222.87" from="lane_entry_C" to="lane_exit_A" type="car_aggr3" /><trip id="r_and_alt_1_7_car_aggr1.3" depart="28240.48" from="lane_entry_C" to="lane_exit_A" type="car_aggr1" /><trip id="r_luz_tun_aAm_eGo_7_car_aggr1.3" depart="28243.35" from="lane_entry_B" to="lane_exit_C" type="car_aggr1" /><trip id="r_luz_tun_aAm_eWa_7_motorbike.1" depart="28279.99" from="lane_entry_B" to="lane_exit_C" type="motorbike" /><trip id="r_and_alt_1_7_big_truck.2" depart="28287.76" from="lane_entry_C" to="lane_exit_A" type="big_truck" /><trip id="r_and_alt_1_7_motorbike.1" depart="28291.98" from="lane_entry_C" to="lane_exit_A" type="motorbike" /><trip id="r_and_alt_1_7_car_aggr5.3" depart="28294.95" from="lane_entry_C" to="lane_exit_A" type="car_aggr5" /><trip id="r_luz_tun_aEr_eAm_7_car_aggr3.15" depart="28296.46" from="lane_entry_A" to="lane_exit_B" type="car_aggr3" /><trip id="r_and_alt_1_7_motorbike.2" depart="28298.88" from="lane_entry_C" to="lane_exit_A" type="motorbike" /><trip id="r_luz_tun_aEr_eGo_7_car_aggr2.0" depart="28301.56" from="lane_entry_A" to="lane_exit_C" type="car_aggr2" /><trip id="r_and_alt_1_7_car_aggr3.4" depart="28303.4" from="lane_entry_C" to="lane_exit_A" type="car_aggr3" /><trip id="r_luz_tun_aEr_eAm_7_big_truck.2" depart="28399.24" from="lane_entry_A" to="lane_exit_B" type="big_truck" /><trip id="r_luz_tun_aEr_eAm_7_car_aggr3.17" depart="28403.69" from="lane_entry_A" to="lane_exit_B" type="car_aggr3" /><trip id="r_luz_tun_aEr_eGo_7_small_truck.0" depart="28407.61" from="lane_entry_A" to="lane_exit_C" type="small_truck" /><trip id="r_and_alt_1_7_car_aggr1.4" depart="28495.43" from="lane_entry_C" to="lane_exit_A" type="car_aggr1" /><trip id="r_ams_ers_1_7_car_aggr3.13" depart="28518.55" from="lane_entry_C" to="lane_exit_A" type="car_aggr3" /><trip id="r_luz_tun_aEr_eWa_7_big_truck.1" depart="28520.28" from="lane_entry_A" to="lane_exit_C" type="big_truck" /><trip id="r_luz_tun_aEr_eGo_7_small_truck.1" depart="28523.96" from="lane_entry_A" to="lane_exit_C" type="small_truck" /><trip id="r_luz_tun_aEr_eAm_7_small_truck.8" depart="28527.55" from="lane_entry_A" to="lane_exit_B" type="small_truck" /><trip id="r_luz_tun_aEr_eAm_7_small_truck.9" depart="28531.19" from="lane_entry_A" to="lane_exit_B" type="small_truck" /><trip id="r_and_alt_1_7_car_aggr1.5" depart="28545.37" from="lane_entry_C" to="lane_exit_A" type="car_aggr1" /><trip id="r_and_alt_1_7_car_aggr3.5" depart="28549.5" from="lane_entry_C" to="lane_exit_A" type="car_aggr3" /><trip id="r_ams_ers_1_7_car_aggr3.14" depart="28553.78" from="lane_entry_C" to="lane_exit_A" type="car_aggr3" /><trip id="r_ams_ers_1_7_car_aggr4.9" depart="28557.4" from="lane_entry_C" to="lane_exit_A" type="car_aggr4" /><trip id="r_luz_tun_aAm_eGo_7_car_aggr2.1" depart="28564.8" from="lane_entry_B" to="lane_exit_C" type="car_aggr2" /><trip id="r_luz_tun_aAm_eWa_7_car_aggr4.0" depart="28578.89" from="lane_entry_B" to="lane_exit_C" type="car_aggr4" /><trip id="r_luz_tun_aEr_eAm_7_car_aggr2.5" depart="28618.6" from="lane_entry_A" to="lane_exit_B" type="car_aggr2" /><trip id="r_ams_ers_1_7_car_aggr3.15" depart="28653.91" from="lane_entry_C" to="lane_exit_A" type="car_aggr3" /><trip id="r_luz_tun_aEr_eAm_7_car_aggr3.18" depart="28681.72" from="lane_entry_A" to="lane_exit_B" type="car_aggr3" /><trip id="r_ams_ers_1_7_car_aggr3.16" depart="28686.72" from="lane_entry_C" to="lane_exit_A" type="car_aggr3" /><trip id="r_ams_ers_1_7_car_aggr5.2" depart="28689.89" from="lane_entry_C" to="lane_exit_A" type="car_aggr5" /><trip id="r_ams_ers_1_7_car_aggr3.17" depart="28719.71" from="lane_entry_C" to="lane_exit_A" type="car_aggr3" /><trip id="r_ams_ers_1_7_car_aggr4.10" depart="28777.83" from="lane_entry_C" to="lane_exit_A" type="car_aggr4" /><trip id="r_luz_tun_aAm_eWa_7_car_aggr3.1" depart="28873.45" from="lane_entry_B" to="lane_exit_C" type="car_aggr3" /><trip id="r_and_alt_1_7_car_aggr1.6" depart="28874.74" from="lane_entry_C" to="lane_exit_A" type="car_aggr1" /><trip id="r_luz_tun_aAm_eGo_7_car_aggr1.4" depart="28895.89" from="lane_entry_B" to="lane_exit_C" type="car_aggr1" /><trip id="r_luz_tun_aAm_eGo_7_big_truck.0" depart="28960.59" from="lane_entry_B" to="lane_exit_C" type="big_truck" /><trip id="r_luz_tun_aAm_eGo_7_car_aggr5.0" depart="29000.75" from="lane_entry_B" to="lane_exit_C" type="car_aggr5" /><trip id="r_ams_ers_1_8_car_aggr4.0" depart="29023.3" from="lane_entry_C" to="lane_exit_A" type="car_aggr4" /><trip id="r_luz_tun_aEr_eAm_7_car_aggr5.2" depart="29032.37" from="lane_entry_A" to="lane_exit_B" type="car_aggr5" /><trip id="r_luz_tun_aEr_eAm_7_car_aggr4.8" depart="29036.13" from="lane_entry_A" to="lane_exit_B" type="car_aggr4" /><trip id="r_luz_tun_aEr_eAm_7_small_truck.10" depart="29039.98" from="lane_entry_A" to="lane_exit_B" type="small_truck" /><trip id="r_luz_tun_aEr_eAm_7_big_truck.3" depart="29045.14" from="lane_entry_A" to="lane_exit_B" type="big_truck" /><trip id="r_ams_ers_1_8_car_aggr3.0" depart="29045.56" from="lane_entry_C" to="lane_exit_A" type="car_aggr3" /><trip id="r_luz_tun_aEr_eAm_7_car_aggr5.3" depart="29048.68" from="lane_entry_A" to="lane_exit_B" type="car_aggr5" /><trip id="r_luz_tun_aEr_eAm_7_car_aggr3.19" depart="29053.27" from="lane_entry_A" to="lane_exit_B" type="car_aggr3" /><trip id="r_luz_tun_aAm_eGo_7_small_truck.1" depart="29056.59" from="lane_entry_B" to="lane_exit_C" type="small_truck" /><trip id="r_luz_tun_aEr_eAm_7_car_aggr2.6" depart="29058.71" from="lane_entry_A" to="lane_exit_B" type="car_aggr2" /><trip id="r_luz_tun_aAm_eGo_7_car_aggr4.0" depart="29068.48" from="lane_entry_B" to="lane_exit_C" type="car_aggr4" /><trip id="r_luz_tun_aEr_eAm_7_car_aggr5.4" depart="29157.23" from="lane_entry_A" to="lane_exit_B" type="car_aggr5" /><trip id="r_ams_ers_1_8_big_truck.0" depart="29192.35" from="lane_entry_C" to="lane_exit_A" type="big_truck" /><trip id="r_luz_tun_aEr_eAm_7_car_aggr1.2" depart="29213.54" from="lane_entry