<?xml version='1.0' encoding='utf-8'?>
<trips><trip id="r_axs_tun_aEr_eGo_1_car_aggr4.0" depart="5414.21" from="lane_entry_A" to="lane_exit_D" type="car_aggr4" /><trip id="r_luz_tun_aAm_eGo_1_car_aggr3.0" depart="7602.09" from="lane_entry_A" to="lane_exit_D" type="car_aggr3" /><trip id="r_luz_tun_aAm_eGo_1_big_truck.0" depart="7763.7" from="lane_entry_A" to="lane_exit_D" type="big_truck" /><trip id="r_axs_tun_aEr_eGo_1_car_aggr3.0" depart="8744.27" from="lane_entry_A" to="lane_exit_D" type="car_aggr3" /><trip id="r_axs_tun_aEr_eGo_1_small_truck.0" depart="8979.75" from="lane_entry_A" to="lane_exit_D" type="small_truck" /><trip id="r_and_alt_1_2_car_aggr4.0" depart="9181.41" from="lane_entry_D" to="lane_exit_A" type="car_aggr4" /><trip id="r_axs_tun_aEr_eWa_2_car_aggr5.0" depart="12002.4" from="lane_entry_A" to="lane_exit_B" type="car_aggr5" /><trip id="r_tun_axs_KS_____3_car_aggr2.0" depart="12636.19" from="lane_entry_D" to="lane_exit_A" type="car_aggr2" /><trip id="r_tun_axs_KS_____3_car_aggr3.0" depart="13074.9" from="lane_entry_D" to="lane_exit_A" type="car_aggr3" /><trip id="r_tun_axs_KS_____3_car_aggr3.1" depart="13935.88" from="lane_entry_D" to="lane_exit_A" type="car_aggr3" /><trip id="r_tun_axs_KS_____3_car_aggr3.2" depart="14220.87" from="lane_entry_D" to="lane_exit_A" type="car_aggr3" /><trip id="r_and_alt_1_4_car_aggr3.0" depart="16790.56" from="lane_entry_D" to="lane_exit_A" type="car_aggr3" /><trip id="r_luz_tun_aAm_eWa_4_car_aggr4.0" depart="16819.13" from="lane_entry_A" to="lane_exit_B" type="car_aggr4" /><trip id="r_luz_tun_aAm_eWa_4_car_aggr3.0" depart="17388.85" from="lane_entry_A" to="lane_exit_B" type="car_aggr3" /><trip id="r_luz_tun_aAm_eWa_4_small_truck.0" depart="17529.04" from="lane_entry_A" to="lane_exit_B" type="small_truck" /><trip id="r_luz_tun_aAm_eWa_4_car_aggr3.1" depart="17700.51" from="lane_entry_A" to="lane_exit_B" type="car_aggr3" /><trip id="r_axs_tun_aEr_eWa_4_car_aggr3.0" depart="17730.14" from="lane_entry_A" to="lane_exit_B" type="car_aggr3" /><trip id="r_and_alt_1_4_car_aggr4.0" depart="18362.33" from="lane_entry_D" to="lane_exit_A" type="car_aggr4" /><trip id="r_luz_tun_aEr_eWa_4_car_aggr3.0" depart="18841.83" from="lane_entry_A" to="lane_exit_B" type="car_aggr3" /><trip id="r_luz_tun_aEr_eWa_4_car_aggr5.0" depart="18845.08" from="lane_entry_A" to="lane_exit_B" type="car_aggr5" /><trip id="r_axs_tun_aAm_eWa_4_big_truck.0" depart="19225.21" from="lane_entry_A" to="lane_exit_B" type="big_truck" /><trip id="r_and_alt_1_6_car_aggr2.0" depart="22309.42" from="lane_entry_D" to="lane_exit_A" type="car_aggr2" /><trip id="r_and_alt_1_6_car_aggr3.0" depart="22553.23" from="lane_entry_D" to="lane_exit_A" type="car_aggr3" /><trip id="r_and_alt_1_6_car_aggr3.1" depart="22660.09" from="lane_entry_D" to="lane_exit_A" type="car_aggr3" /><trip id="r_alt_and_1_6_car_aggr3.0" depart="23238.84" from="lane_entry_A" to="lane_exit_D" type="car_aggr3" /><trip id="r_and_alt_1_6_car_aggr3.2" depart="23679.88" from="lane_entry_D" to="lane_exit_A" type="car_aggr3" /><trip id="r_and_alt_1_6_small_truck.0" depart="24293.62" from="lane_entry_D" to="lane_exit_A" type="small_truck" /><trip id="r_alt_and_1_6_big_truck.0" depart="24383.32" from="lane_entry_A" to="lane_exit_D" type="big_truck" /><trip id="r_and_alt_1_6_car_aggr4.0" depart="24524.84" from="lane_entry_D" to="lane_exit_A" type="car_aggr4" /><trip id="r_alt_and_1_6_car_aggr4.0" depart="24586.23" from="lane_entry_A" to="lane_exit_D" type="car_aggr4" /><trip id="r_alt_and_1_6_small_truck.0" depart="24654.37" from="lane_entry_A" to="lane_exit_D" type="small_truck" /><trip id="r_and_alt_1_6_car_aggr2.1" depart="24693.52" from="lane_entry_D" to="lane_exit_A" type="car_aggr2" /><trip id="r_and_alt_1_6_car_aggr5.0" depart="24931.52" from="lane_entry_D" to="lane_exit_A" type="car_aggr5" /><trip id="r_alt_and_1_6_car_aggr3.1" depart="25797.52" from="lane_entry_A" to="lane_exit_D" type="car_aggr3" /><trip id="r_alt_and_1_6_small_truck.1" depart="26023.16" from="lane_entry_A" to="lane_exit_D" type="small_truck" /><trip id="r_and_alt_1_7_car_aggr3.0" depart="26051.37" from="lane_entry_D" to="lane_exit_A" type="car_aggr3" /><trip id="r_and_alt_1_7_car_aggr2.0" depart="26095.5" from="lane_entry_D" to="lane_exit_A" type="car_aggr2" /><trip id="r_and_alt_1_7_car_aggr5.0" depart="26124.68" from="lane_entry_D" to="lane_exit_A" type="car_aggr5" /><trip id="r_and_alt_1_7_big_truck.0" depart="26459.12" from="lane_entry_D" to="lane_exit_A" type="big_truck" /><trip id="r_and_alt_1_7_car_aggr1.0" depart="26584.45" from="lane_entry_D" to="lane_exit_A" type="car_aggr1" /><trip id="r_and_alt_1_7_big_truck.1" depart="26710.48" from="lane_entry_D" to="lane_exit_A" type="big_truck" /><trip id="r_and_alt_1_7_car_aggr1.1" depart="26878.99" from="lane_entry_D" to="lane_exit_A" type="car_aggr1" /><trip id="r_and_alt_1_7_car_aggr5.1" depart="26882.24" from="lane_entry_D" to="lane_exit_A" type="car_aggr5" /><trip id="r_and_alt_1_7_car_aggr3.1" depart="26886.99" from="lane_entry_D" to="lane_exit_A" type="car_aggr3" /><trip id="r_and_alt_1_7_car_aggr4.0" depart="26890.81" from="lane_entry_D" to="lane_exit_A" type="car_aggr4" /><trip id="r_and_alt_1_7_car_aggr5.2" depart="26958.13" from="lane_entry_D" to="lane_exit_A" type="car_aggr5" /><trip id="r_and_alt_1_7_car_aggr3.2" depart="27012.13" from="lane_entry_D" to="lane_exit_A" type="car_aggr3" /><trip id="r_and_alt_1_7_motorbike.0" depart="27036.95" from="lane_entry_D" to="lane_exit_A" type="motorbike" /><trip id="r_and_alt_1_7_car_aggr3.3" depart="27134.02" from="lane_entry_D" to="lane_exit_A" type="car_aggr3" /><trip id="r_luz_tun_aAm_eWa_7_motorbike.0" depart="27167.65" from="lane_entry_A" to="lane_exit_B" type="motorbike" /><trip id="r_and_alt_1_7_car_aggr1.2" depart="27227.42" from="lane_entry_D" to="lane_exit_A" type="car_aggr1" /><trip id="r_and_alt_1_7_car_aggr1.3" depart="27279.24" from="lane_entry_D" to="lane_exit_A" type="car_aggr1" /><trip id="r_and_alt_1_7_big_truck.2" depart="27356.24" from="lane_entry_D" to="lane_exit_A" type="big_truck" /><trip id="r_and_alt_1_7_motorbike.1" depart="27360.37" from="lane_entry_D" to="lane_exit_A" type="motorbike" /><trip id="r_and_alt_1_7_car_aggr5.3" depart="27363.38" from="lane_entry_D" to="lane_exit_A" type="car_aggr5" /><trip id="r_and_alt_1_7_motorbike.2" depart="27367.21" from="lane_entry_D" to="lane_exit_A" type="motorbike" /><trip id="r_and_alt_1_7_car_aggr3.4" depart="27371.76" from="lane_entry_D" to="lane_exit_A" type="car_aggr3" /><trip id="r_and_alt_1_7_car_aggr1.4" depart="27586.83" from="lane_entry_D" to="lane_exit_A" type="car_aggr1" /><trip id="r_luz_tun_aAm_eGo_7_car_aggr3.0" depart="27651.51" from="lane_entry_A" to="lane_exit_D" type="car_aggr3" /><trip id="r_luz_tun_aEr_eWa_7_small_truck.0" depart="27655.51" from="lane_entry_A" to="lane_exit_B" type="small_truck" /><trip id="r_and_alt_1_7_car_aggr1.5" depart="27670.82" from="lane_entry_D" to="lane_exit_A" type="car_aggr1" /><trip id="r_and_alt_1_7_car_aggr3.5" depart="27759.5" from="lane_entry_D" to="lane_exit_A" type="car_aggr3" /><trip id="r_and_alt_1_7_car_aggr1.6" depart="27933.42" from="lane_entry_D" to="lane_exit_A" type="car_aggr1" /><trip id="r_luz_tun_aAm_eGo_7_car_aggr1.1" depart="27941.15" from="lane_entry_A" to="lane_exit_D" type="car_aggr1" /><trip id="r_luz_tun_aAm_eGo_7_car_aggr1.0" depart="28046.54" from="lane_entry_A" to="lane_exit_D" type="car_aggr1" /><trip id="r_luz_tun_aAm_eGo_7_car_aggr3.1" depart="28050.92" from="lane_entry_A" to="lane_exit_D" type="car_aggr3" /><trip id="r_alt_and_1_7_car_aggr4.0" depart="28115.08" from="lane_entry_A" to="lane_exit_D" type="car_aggr4" /><trip id="r_luz_tun_aEr_eGo_7_car_aggr3.0" depart="28180.69" from="lane_entry_A" to="lane_exit_D" type="car_aggr3" /><trip id="r_and_alt_1_7_car_aggr5.4" depart="28221.8" from="lane_entry_D" to="lane_exit_A" type="car_aggr5" /><trip id="r_and_alt_1_7_car_aggr5.5" depart="28225.03" from="lane_entry_D" to="lane_exit_A" type="car_aggr5" /><trip id="r_and_alt_1_7_car_aggr4.1" depart="28229.1" from="lane_entry_D" to="lane_exit_A" type="car_aggr4" /><trip id="r_and_alt_1_7_car_aggr1.7" depart="28389.37" from="lane_entry_D" to="lane_exit_A" type="car_aggr1" /><trip id="r_and_alt_1_7_car_aggr4.2" depart="28393.07" from="lane_entry_D" to="lane_exit_A" type="car_aggr4" /><trip id="r_luz_tun_aAm_eGo_7_car_aggr1.2" depart="28430.51" from="lane_entry_A" to="lane_exit_D" type="car_aggr1" /><trip id="r_luz_tun_aAm_eGo_7_car_aggr2.0" depart="28436.04" from="lane_entry_A" to="lane_exit_D" type="car_aggr2" /><trip id="r_alt_and_1_7_car_aggr1.0" depart="28512.82" from="lane_entry_A" to="lane_exit_D" type="car_aggr1" /><trip id="r_and_alt_1_7_small_truck.0" depart="28551.95" from="lane_entry_D" to="lane_exit_A" type="small_truck" /><trip id="r_and_alt_1_7_car_aggr4.3" depart="28773.2" from="lane_entry_D" to="lane_exit_A" type="car_aggr4" /><trip id="r_luz_tun_aAm_eWa_7_car_aggr3.0" depart="28777.84" from="lane_entry_A" to="lane_exit_B" type="car_aggr3" /><trip id="r_luz_tun_aAm_eGo_7_small_truck.0" depart="28781.79" from="lane_entry_A" to="lane_exit_D" type="small_truck" /><trip id="r_luz_tun_aEr_eWa_7_car_aggr1.0" depart="28788.65" from="lane_entry_A" to="lane_exit_B" type="car_aggr1" /><trip id="r_and_alt_1_7_car_aggr4.4" depart="28801.0" from="lane_entry_D" to="lane_exit_A" type="car_aggr4" /><trip id="r_and_alt_1_7_car_aggr3.6" depart="28828.89" from="lane_entry_D" to="lane_exit_A" type="car_aggr3" /><trip id="r_and_alt_1_7_car_aggr3.7" depart="28833.01" from="lane_entry_D" to="lane_exit_A" type="car_aggr3" /><trip id="r_and_alt_1_7_car_aggr5.6" depart="28835.98" from="lane_entry_D" to="lane_exit_A" type="car_aggr5" /><trip id="r_luz_tun_aAm_eGo_7_car_aggr1.3" depart="28877.9" from="lane_entry_A" to="lane_exit_D" type="car_aggr1" /><trip id="r_luz_tun_aEr_eWa_7_car_aggr3.0" depart="28882.24" from="lane_entry_A" to="lane_exit_B" type="car_aggr3" /><trip id="r_luz_tun_aEr_eWa_7_car_aggr4.1" depart="28886.09" from="lane_entry_A" to="lane_exit_B" type="car_aggr4" /><trip id="r_luz_tun_aAm_eWa_7_motorbike.1" depart="28889.91" from="lane_entry_A" to="lane_exit_B" type="motorbike" /><trip id="r_luz_tun_aEr_eGo_7_car_aggr3.1" depart="28894.51" from="lane_entry_A" to="lane_exit_D" type="car_aggr3" /><trip id="r_luz_tun_aEr_eWa_7_car_aggr4.0" depart="28898.43" from="lane_entry_A" to="lane_exit_B" type="car_aggr4" /><trip id="r_and_alt_1_7_car_aggr2.1" depart="28984.68" from="lane_entry_D" to="lane_exit_A" type="car_aggr2" /><trip id="r_luz_tun_aEr_eWa_7_big_truck.0" depart="29162.23" from="lane_entry_A" to="lane_exit_B" type="big_truck" /><trip id="r_luz_tun_aEr_eWa_7_car_aggr2.0" depart="29168.2" from="lane_entry_A" to="lane_exit_B" type="car_aggr2" /><trip id="r_and_alt_1_8_car_aggr5.0" depart="29242.74" from="lane_entry_D" to="lane_exit_A" type="car_aggr5" /><trip id="r_luz_tun_aAm_eGo_7_car_aggr2.1" depart="29267.18" from="lane_entry_A" to="lane_exit_D" type="car_aggr2" /><trip id="r_luz_tun_aEr_eGo_7_car_aggr2.0" depart="29272.72" from="lane_entry_A" to="lane_exit_D" type="car_aggr2" /><trip id="r_luz_tun_aAm_eWa_7_car_aggr4.0" depart="29276.79" from="lane_entry_A" to="lane_exit_B" type="car_aggr4" /><trip id="r_luz_tun_aEr_eGo_7_small_truck.0" depart="29280.91" from="lane_entry_A" to="lane_exit_D" type="small_truck" /><trip id="r_luz_tun_aEr_eWa_7_big_truck.1" depart="29470.5" from="lane_entry_A" to="lane_exit_B" type="big_truck" /><trip id="r_luz_tun_aEr_eGo_7_small_truck.1" depart="29474.8" from="lane_entry_A" to="lane_exit_D" type="small_truck" /><trip id="r_luz_tun_aAm_eWa_7_car_aggr3.1" depart="29479.35" from="lane_entry_A" to="lane_exit_B" type="car_aggr3" /><trip id="r_luz_tun_aAm_eGo_7_car_aggr1.4" depart="29486.15" from="lane_entry_A" to="lane_exit_D" type="car_aggr1" /><trip id="r_luz_tun_aAm_eGo_7_big_truck.0" depart="29558.82" from="lane_entry_A" to="lane_exit_D" type="big_truck" /><trip id="r_luz_tun_aAm_eGo_7_car_aggr5.0" depart="29562.59" from="lane_entry_A" to="lane_exit_D" type="car_aggr5" /><trip id="r_luz_tun_aAm_eGo_7_small_truck.1" depart="29650.53" from="lane_entry_A" to="lane_exit_D" type="small_truck" /><trip id="r_luz_tun_aAm_eGo_7_car_aggr4.0" depart="29654.62" from="lane_entry_A" to="lane_exit_D" type="car_aggr4" /><trip id="r_and_alt_1_8_car_aggr4.0" depart="29807.36" from="lane_entry_D" to="lane_exit_A" type="car_aggr4" /><trip id="r_and_alt_1_8_car_aggr3.0" depart="29840.4" from="lane_entry_D" to="lane_exit_A" type="car_aggr3" /><trip id="r_and_alt_1_8_car_aggr3.1" depart="29844.52" from="lane_entry_D" to="lane_exit_A" type="car_aggr3" /><trip id="r_and_alt_1_8_big_truck.0" depart="29957.44" from="lane_entry_D" to="lane_exit_A" type="big_truck" /><trip id="r_luz_tun_aEr_eGo_7_car_aggr5.0" depart="30045.57" from="lane_entry_A" to="lane_exit_D" type="car_aggr5" /><trip id="r_and_alt_1_8_small_truck.0" depart="30252.89" from="lane_entry_D" to="lane_exit_A" type="small_truck" /><trip id="r_and_alt_1_8_car_aggr3.2" depart="30306.76" from="lane_entry_D" to="lane_exit_A" type="car_aggr3" /><trip id="r_and_alt_1_8_car_aggr5.1" depart="30392.31" from="lane_entry_D" to="lane_exit_A" type="car_aggr5" /><trip id="r_luz_tun_aEr_eWa_7_car_aggr3.1" depart="30473.31" from="lane_entry_A" to="lane_exit_B" type="car_aggr3" /><trip id="r_luz_tun_aEr_eWa_7_car_aggr2.1" depart="30503.43" from="lane_entry_A" to="lane_exit_B" type="car_aggr2" /><trip id="r_and_alt_1_8_car_aggr3.3" depart="30547.12" from="lane_entry_D" to="lane_exit_A" type="car_aggr3" /><trip id="r_and_alt_1_8_car_aggr3.4" depart="30683.02" from="lane_entry_D" to="lane_exit_A" type="car_aggr3" /><trip id="r_luz_tun_aEr_eWa_7_car_aggr5.0" depart="30699.41" from="lane_entry_A" to="lane_exit_B" type="car_aggr5" /><trip id="r_luz_tun_aEr_eGo_7_car_aggr5.1" depart="30767.57" from="lane_entry_A" to="lane_exit_D" type="car_aggr5" /><trip id="r_luz_tun_aEr_eGo_7_small_truck.2" depart="30772.01" from="lane_entry_A" to="lane_exit_D" type="small_truck" /><trip id="r_axs_tun_aAm_eGo_8_car_aggr3.0" depart="30776.5" from="lane_entry_A" to="lane_exit_D" type="car_aggr3" /><trip id="r_luz_tun_aAm_eWa_7_car_aggr1.0" depart="30783.37" from="lane_entry_A" to="lane_exit_B" type="car_aggr1" /><trip id="r_luz_tun_aEr_eWa_7_small_truck.1" depart="30929.2" from="lane_entry_A" to="lane_exit_B" type="small_truck" /><trip id="r_luz_tun_aEr_eGo_7_small_truck.3" depart="30932.98" from="lane_entry_A" to="lane_exit_D" type="small_truck" /><trip id="r_axs_tun_aEr_eGo_8_car_aggr5.0" depart="30936.39" from="lane_entry_A" to="lane_exit_D" type="car_aggr5" /><trip id="r_and_alt_1_8_big_truck.1" depart="30941.18" from="lane_entry_D" to="lane_exit_A" type="big_truck" /><trip id="r_luz_tun_aAm_eWa_8_car_aggr2.0" depart="30972.1" from="lane_entry_A" to="lane_exit_B" type="car_aggr2" /><trip id="r_axs_tun_aAm_eGo_8_car_aggr4.0" depart="30976.01" from="lane_entry_A" to="lane_exit_D" type="car_aggr4" /><trip id="r_luz_tun_aAm_eGo_8_car_aggr5.0" depart="30979.16" from="lane_entry_A" to="lane_exit_D" type="car_aggr5" /><trip id="r_luz_tun_aAm_eWa_8_car_aggr3.0" depart="31023.58" from="lane_entry_A" to="lane_exit_B" type="car_aggr3" /><trip id="r_luz_tun_aEr_eWa_7_car_aggr3.2" depart="31034.0" from="lane_entry_A" to="lane_exit_B" type="car_aggr3" /><trip id="r_luz_tun_aAm_eWa_8_small_truck.0" depart="31157.91" from="lane_entry_A" to="lane_exit_B" type="small_truck" /><trip id="r_luz_tun_aAm_eGo_8_small_truck.0" depart="31161.8" from="lane_entry_A" to="lane_exit_D" type="small_truck" /><trip id="r_luz_tun_aEr_eGo_8_car_aggr3.0" depart="31219.92" from="lane_entry_A" to="lane_exit_D" type="car_aggr3" /><trip id="r_axs_tun_aAm_eGo_8_car_aggr4.1" depart="31230.08" from="lane_entry_A" to="lane_exit_D" type="car_aggr4" /><trip id="r_and_alt_1_8_car_aggr1.0" depart="31384.64" from="lane_entry_D" to="lane_exit_A" type="car_aggr1" /><trip id="r_and_alt_1_8_car_aggr3.5" depart="31388.89" from="lane_entry_D" to="lane_exit_A" type="car_aggr3" /><trip id="r_and_alt_1_8_small_truck.1" depart="31392.89" from="lane_entry_D" to="lane_exit_A" type="small_truck" /><trip id="r_axs_tun_aAm_eGo_8_car_aggr3.1" depart="31394.37" from="lane_entry_A" to="lane_exit_D" type="car_aggr3" /><trip id="r_axs_tun_aAm_eGo_8_car_aggr3.2" depart="31409.18" from="lane_entry_A" to="lane_exit_D" type="car_aggr3" /><trip id="r_axs_tun_aEr_eGo_8_car_aggr3.0" depart="31413.69" from="lane_entry_A" to="lane_exit_D" type="car_aggr3" /><trip id="r_luz_tun_aEr_eWa_8_motorbike.0" depart="31441.66" from="lane_entry_A" to="lane_exit_B" type="motorbike" /><trip id="r_and_alt_1_8_car_aggr3.6" depart="31536.67" from="lane_entry_D" to="lane_exit_A" type="car_aggr3" /><trip id="r_axs_tun_aAm_eGo_8_car_aggr1.0" depart="31595.25" from="lane_entry_A" to="lane_exit_D" type="car_aggr1" /><trip id="r_axs_tun_aEr_eGo_8_car_aggr5.1" depart="31598.57" from="lane_entry_A" to="lane_exit_D" type="car_aggr5" /><trip id="r_axs_tun_aAm_eWa_8_motorbike.0" depart="31602.42" from="lane_entry_A" to="lane_exit_B" type="motorbike" /><trip id="r_and_alt_1_8_small_truck.2" depart="31660.72" from="lane_entry_D" to="lane_exit_A" type="small_truck" /><trip id="r_and_alt_1_8_car_aggr1.1" depart="31693.48" from="lane_entry_D" to="lane_exit_A" type="car_aggr1" /><trip id="r_and_alt_1_8_small_truck.3" depart="31782.1" from="lane_entry_D" to="lane_exit_A" type="small_truck" /><trip id="r_luz_tun_aAm_eGo_8_small_truck.1" depart="31848.42" from="lane_entry_A" to="lane_exit_D" type="small_truck" /><trip id="r_luz_tun_aEr_eGo_8_big_truck.0" depart="31890.61" from="lane_entry_A" to="lane_exit_D" type="big_truck" /><trip id="r_luz_tun_aEr_eGo_8_car_aggr5.0" depart="31894.49" from="lane_entry_A" to="lane_exit_D" type="car_aggr5" /><trip id="r_axs_tun_aAm_eGo_8_car_aggr3.3" depart="31899.26" from="lane_entry_A" to="lane_exit_D" type="car_aggr3" /><trip id="r_axs_tun_aAm_eGo_8_car_aggr4.2" depart="31903.14" from="lane_entry_A" to="lane_exit_D" type="car_aggr4" /><trip id="r_luz_tun_aEr_eGo_8_car_aggr4.0" depart="31907.04" from="lane_entry_A" to="lane_exit_D" type="car_aggr4" /><trip id="r_and_alt_1_8_car_aggr3.7" depart="32041.9" from="lane_entry_D" to="lane_exit_A" type="car_aggr3" /><trip id="r_and_alt_1_8_car_aggr3.8" depart="32046.01" from="lane_entry_D" to="lane_exit_A" type="car_aggr3" /><trip id="r_luz_tun_aAm_eWa_8_car_aggr1.0" depart="32060.44" from="lane_entry_A" to="lane_exit_B" type="car_aggr1" /><trip id="r_axs_tun_aEr_eWa_8_car_aggr4.0" depart="32064.36" from="lane_entry_A" to="lane_exit_B" type="car_aggr4" /><trip id="r_axs_tun_aEr_eGo_8_car_aggr3.1" depart="32192.14" from="lane_entry_A" to="lane_exit_D" type="car_aggr3" /><trip id="r_and_alt_1_8_big_truck.2" depart="32228.92" from="lane_entry_D" to="lane_exit_A" type="big_truck" /><trip id="r_and_alt_1_8_car_aggr2.0" depart="32558.23" from="lane_entry_D" to="lane_exit_A" type="car_aggr2" /><trip id="r_axs_tun_aEr_eGo_8_car_aggr3.2" depart="32616.65" from="lane_entry_A" to="lane_exit_D" type="car_aggr3" /><trip id="r_luz_tun_aEr_eWa_8_small_truck.0" depart="32658.65" from="lane_entry_A" to="lane_exit_B" type="small_truck" /><trip id="r_luz_tun_aAm_eWa_8_car_aggr2.1" depart="32665.39" from="lane_entry_A" to="lane_exit_B" type="car_aggr2" /><trip id="r_and_alt_1_8_car_aggr3.9" depart="32698.5" from="lane_entry_D" to="lane_exit_A" type="car_aggr3" /><trip id="r_and_alt_1_8_car_aggr3.10" depart="32788.23" from="lane_entry_D" to="lane_exit_A" type="car_aggr3" /><trip id="r_luz_tun_aAm_eGo_8_car_aggr3.0" depart="32870.17" from="lane_entry_A" to="lane_exit_D" type="car_aggr3" /><trip id="r_and_alt_1_8_car_aggr2.1" depart="32982.96" from="lane_entry_D" to="lane_exit_A" type="car_aggr2" /><trip id="r_and_alt_1_9_car_aggr2.0" depart="32988.13" from="lane_entry_D" to="lane_exit_A" type="car_aggr2" /><trip id="r_axs_tun_aEr_eWa_8_car_aggr5.0" depart="33000.51" from="lane_entry_A" to="lane_exit_B" type="car_aggr5" /><trip id="r_axs_tun_aEr_eGo_8_car_aggr3.3" depart="33005.37" from="lane_entry_A" to="lane_exit_D" type="car_aggr3" /><trip id="r_axs_tun_aEr_eGo_8_car_aggr3.4" depart="33009.94" from="lane_entry_A" to="lane_exit_D" type="car_aggr3" /><trip id="r_axs_tun_aAm_eGo_8_car_aggr1.1" depart="33016.62" from="lane_entry_A" to="lane_exit_D" type="car_aggr1" /><trip id="r_luz_tun_aEr_eWa_8_car_aggr2.0" depart="33102.15" from="lane_entry_A" to="lane_exit_B" type="car_aggr2" /><trip id="r_axs_tun_aEr_eWa_8_car_aggr5.1" depart="33105.53" from="lane_entry_A" to="lane_exit_B" type="car_aggr5" /><trip id="r_axs_tun_aAm_eGo_8_car_aggr2.0" depart="33111.8" from="lane_entry_A" to="lane_exit_D" type="car_aggr2" /><trip id="r_axs_tun_aEr_eWa_8_car_aggr2.0" depart="33117.34" from="lane_entry_A" to="lane_exit_B" type="car_aggr2" /><trip id="r_luz_tun_aAm_eWa_8_car_aggr4.0" depart="33124.28" from="lane_entry_A" to="lane_exit_B" type="car_aggr4" /><trip id="r_axs_tun_aAm_eGo_8_small_truck.0" depart="33128.55" from="lane_entry_A" to="lane_exit_D" type="small_truck" /><trip id="r_luz_tun_aEr_eGo_8_car_aggr5.1" depart="33132.0" from="lane_entry_A" to="lane_exit_D" type="car_aggr5" /><trip id="r_luz_tun_aAm_eGo_8_small_truck.2" depart="33136.44" from="lane_entry_A" to="lane_exit_D" type="small_truck" /><trip id="r_axs_tun_aEr_eGo_8_car_aggr5.2" depart="33139.91" from="lane_entry_A" to="lane_exit_D" type="car_aggr5" /><trip id="r_and_alt_1_9_car_aggr2.1" depart="33277.47" from="lane_entry_D" to="lane_exit_A" type="car_aggr2" /><trip id="r_and_alt_1_9_car_aggr2.2" depart="33291.3" from="lane_entry_D" to="lane_exit_A" type="car_aggr2" /><trip id="r_axs_tun_aEr_eWa_8_car_aggr3.0" depart="33443.71" from="lane_entry_A" to="lane_exit_B" type="car_aggr3" /><trip id="r_axs_tun_aAm_eGo_8_car_aggr4.3" depart="33485.31" from="lane_entry_A" to="lane_exit_D" type="car_aggr4" /><trip id="r_and_alt_1_9_car_aggr2.3" depart="33610.95" from="lane_entry_D" to="lane_exit_A" type="car_aggr2" /><trip id="r_and_alt_1_9_car_aggr3.0" depart="33657.47" from="lane_entry_D" to="lane_exit_A" type="car_aggr3" /><trip id="r_axs_tun_aEr_eGo_8_big_truck.0" depart="33664.54" from="lane_entry_A" to="lane_exit_D" type="big_truck" /><trip id="r_axs_tun_aEr_eGo_8_car_aggr2.0" depart="33768.21" from="lane_entry_A" to="lane_exit_D" type="car_aggr2" /><trip id="r_axs_tun_aAm_eGo_8_car_aggr3.4" depart="33772.78" from="lane_entry_A" to="lane_exit_D" type="car_aggr3" /><trip id="r_luz_tun_aAm_eWa_8_small_truck.1" depart="33835.04" from="lane_entry_A" to="lane_exit_B" type="small_truck" /><trip id="r_and_alt_1_9_small_truck.0" depart="33952.72" from="lane_entry_D" to="lane_exit_A" type="small_truck" /><trip id="r_and_alt_1_9_car_aggr1.0" depart="33959.23" from="lane_entry_D" to="lane_exit_A" type="car_aggr1" /><trip id="r_axs_tun_aAm_eGo_8_small_truck.1" depart="33980.32" from="lane_entry_A" to="lane_exit_D" type="small_truck" /><trip id="r_axs_tun_aAm_eWa_9_small_truck.0" depart="34177.92" from="lane_entry_A" to="lane_exit_B" type="small_truck" /><trip id="r_luz_tun_aAm_eWa_8_car_aggr1.1" depart="34184.75" from="lane_entry_A" to="lane_exit_B" type="car_aggr1" /><trip id="r_axs_tun_aEr_eGo_8_car_aggr4.0" depart="34262.49" from="lane_entry_A" to="lane_exit_D" type="car_aggr4" /><trip id="r_axs_tun_aEr_eWa_9_car_aggr5.0" depart="34328.43" from="lane_entry_A" to="lane_exit_B" type="car_aggr5" /><trip id="r_and_alt_1_9_car_aggr4.0" depart="34338.39" from="lane_entry_D" to="lane_exit_A" type="car_aggr4" /><trip id="r_axs_tun_aEr_eWa_9_car_aggr3.0" depart="34358.49" from="lane_entry_A" to="lane_exit_B" type="car_aggr3" /><trip id="r_and_alt_1_9_motorbike.0" depart="34417.15" from="lane_entry_D" to="lane_exit_A" type="motorbike" /><trip id="r_and_alt_1_9_car_aggr5.0" depart="34439.99" from="lane_entry_D" to="lane_exit_A" type="car_aggr5" /><trip id="r_axs_tun_aEr_eGo_9_car_aggr3.0" depart="34503.38" from="lane_entry_A" to="lane_exit_D" type="car_aggr3" /><trip id="r_and_alt_1_9_small_truck.1" depart="34644.4" from="lane_entry_D" to="lane_exit_A" type="small_truck" /><trip id="r_and_alt_1_9_car_aggr2.4" depart="35001.2" from="lane_entry_D" to="lane_exit_A" type="car_aggr2" /><trip id="r_luz_tun_aAm_eGo_8_car_aggr2.0" depart="35182.41" from="lane_entry_A" to="lane_exit_D" type="car_aggr2" /><trip id="r_luz_tun_aAm_eGo_9_car_aggr3.0" depart="35187.16" from="lane_entry_A" to="lane_exit_D" type="car_aggr3" /><trip id="r_luz_tun_aEr_eWa_9_car_aggr3.0" depart="35191.77" from="lane_entry_A" to="lane_exit_B" type="car_aggr3" /><trip id="r_axs_tun_aEr_eGo_9_motorbike.0" depart="35196.02" from="lane_entry_A" to="lane_exit_D" type="motorbike" /><trip id="r_axs_tun_aAm_eGo_9_car_aggr2.0" depart="35234.83" from="lane_entry_A" to="lane_exit_D" type="car_aggr2" /><trip id="r_luz_tun_aEr_eWa_9_car_aggr4.0" depart="35238.78" from="lane_entry_A" to="lane_exit_B" type="car_aggr4" /><trip id="r_luz_tun_aEr_eWa_9_car_aggr5.0" depart="35242.17" from="lane_entry_A" to="lane_exit_B" type="car_aggr5" /><trip id="r_luz_tun_aEr_eWa_9_car_aggr5.1" depart="35245.62" from="lane_entry_A" to="lane_exit_B" type="car_aggr5" /><trip id="r_luz_tun_aEr_eWa_9_car_aggr5.2" depart="35248.98" from="lane_entry_A" to="lane_exit_B" type="car_aggr5" /><trip id="r_luz_tun_aAm_eWa_9_car_aggr5.0" depart="35252.37" from="lane_entry_A" to="lane_exit_B" type="car_aggr5" /><trip id="r_luz_tun_aAm_eWa_9_car_aggr3.0" depart="35631.16" from="lane_entry_A" to="lane_exit_B" type="car_aggr3" /><trip id="r_axs_tun_aAm_eWa_9_small_truck.1" depart="35635.16" from="lane_entry_A" to="lane_exit_B" type="small_truck" /><trip id="r_axs_tun_aEr_eGo_9_car_aggr2.0" depart="35640.81" from="lane_entry_A" to="lane_exit_D" type="car_aggr2" /><trip id="r_axs_tun_aEr_eWa_9_small_truck.0" depart="35647.48" from="lane_entry_A" to="lane_exit_B" type="small_truck" /><trip id="r_luz_tun_aAm_eWa_9_car_aggr4.0" depart="35670.73" from="lane_entry_A" to="lane_exit_B" type="car_aggr4" /><trip id="r_and_alt_1_9_car_aggr4.1" depart="35701.3" from="lane_entry_D" to="lane_exit_A" type="car_aggr4" /><trip id="r_and_alt_1_9_small_truck.2" depart="35841.49" from="lane_entry_D" to="lane_exit_A" type="small_truck" /><trip id="r_and_alt_1_9_car_aggr3.1" depart="35845.75" from="lane_entry_D" to="lane_exit_A" type="car_aggr3" /><trip id="r_and_alt_1_9_car_aggr2.5" depart="35851.4" from="lane_entry_D" to="lane_exit_A" type="car_aggr2" /><trip id="r_axs_tun_aEr_eWa_9_car_aggr2.0" depart="35878.48" from="lane_entry_A" to="lane_exit_B" type="car_aggr2" /><trip id="r_luz_tun_aAm_eWa_9_car_aggr3.1" depart="35883.02" from="lane_entry_A" to="lane_exit_B" type="car_aggr3" /><trip id="r_axs_tun_aAm_eWa_9_car_aggr3.0" depart="35887.63" from="lane_entry_A" to="lane_exit_B" type="car_aggr3" /><trip id="r_axs_tun_aAm_eGo_9_car_aggr2.1" depart="35941.07" from="lane_entry_A" to="lane_exit_D" type="car_aggr2" /><trip id="r_and_alt_1_9_big_truck.0" depart="36053.75" from="lane_entry_D" to="lane_exit_A" type="big_truck" /><trip id="r_luz_tun_aEr_eGo_9_car_aggr1.0" depart="36170.96" from="lane_entry_A" to="lane_exit_D" type="car_aggr1" /><trip id="r_luz_tun_aEr_eWa_9_car_aggr5.3" depart="36174.66" from="lane_entry_A" to="lane_exit_B" type="car_aggr5" /><trip id="r_axs_tun_aAm_eWa_9_car_aggr4.0" depart="36178.98" from="lane_entry_A" to="lane_exit_B" type="car_aggr4" /><trip id="r_axs_tun_aAm_eWa_9_car_aggr5.0" depart="36182.54" from="lane_entry_A" to="lane_exit_B" type="car_aggr5" /><trip id="r_axs_tun_aEr_eGo_9_car_aggr3.1" depart="36187.56" from="lane_entry_A" to="lane_exit_D" type="car_aggr3" /><trip id="r_axs_tun_aAm_eGo_9_small_truck.0" depart="36326.32" from="lane_entry_A" to="lane_exit_D" type="small_truck" /><trip id="r_luz_tun_aEr_eGo_9_small_truck.0" depart="36482.13" from="lane_entry_A" to="lane_exit_D" type="small_truck" /><trip id="r_luz_tun_aAm_eGo_9_car_aggr4.0" depart="36485.88" from="lane_entry_A" to="lane_exit_D" type="car_aggr4" /><trip id="r_axs_tun_aEr_eWa_9_car_aggr3.1" depart="36570.82" from="lane_entry_A" to="lane_exit_B" type="car_aggr3" /><trip id="r_axs_tun_aEr_eGo_9_car_aggr5.0" depart="36574.16" from="lane_entry_A" to="lane_exit_D" type="car_aggr5" /><trip id="r_axs_tun_aEr_eWa_9_car_aggr3.2" depart="36755.49" from="lane_entry_A" to="lane_exit_B" type="car_aggr3" /><trip id="r_luz_tun_aEr_eGo_9_car_aggr3.0" depart="36759.86" from="lane_entry_A" to="lane_exit_D" type="car_aggr3" /><trip id="r_luz_tun_aAm_eWa_9_car_aggr4.1" depart="36763.91" from="lane_entry_A" to="lane_exit_B" type="car_aggr4" /><trip id="r_luz_tun_aAm_eGo_9_car_aggr3.1" depart="36768.65" from="lane_entry_A" to="lane_exit_D" type="car_aggr3" /><trip id="r_and_alt_1_10_car_aggr1.0" depart="36779.2" from="lane_entry_D" to="lane_exit_A" type="car_aggr1" /><trip id="r_and_alt_1_10_car_aggr3.0" depart="36876.05" from="lane_entry_D" to="lane_exit_A" type="car_aggr3" /><trip id="r_and_alt_1_10_car_aggr5.0" depart="36879.17" from="lane_entry_D" to="lane_exit_A" type="car_aggr5" /><trip id="r_luz_tun_aEr_eWa_9_small_truck.0" depart="36881.33" from="lane_entry_A" to="lane_exit_B" type="small_truck" /><trip id="r_axs_tun_aAm_eWa_9_car_aggr2.0" depart="36886.87" from="lane_entry_A" to="lane_exit_B" type="car_aggr2" /><trip id="r_luz_tun_aAm_eGo_9_car_aggr4.1" depart="36890.71" from="lane_entry_A" to="lane_exit_D" type="car_aggr4" /><trip id="r_luz_tun_aEr_eGo_9_car_aggr3.1" depart="36963.73" from="lane_entry_A" to="lane_exit_D" type="car_aggr3" /><trip id="r_luz_tun_aEr_eWa_9_small_truck.1" depart="37147.37" from="lane_entry_A" to="lane_exit_B" type="small_truck" /><trip id="r_and_alt_1_10_small_truck.0" depart="37148.49" from="lane_entry_D" to="lane_exit_A" type="small_truck" /><trip id="r_axs_tun_aEr_eWa_9_car_aggr2.1" depart="37161.23" from="lane_entry_A" to="lane_exit_B" type="car_aggr2" /><trip id="r_and_alt_1_10_car_aggr4.0" depart="37169.27" from="lane_entry_D" to="lane_exit_A" type="car_aggr4" /><trip id="r_luz_tun_aAm_eGo_9_car_aggr2.0" depart="37208.55" from="lane_entry_A" to="lane_exit_D" type="car_aggr2" /><trip id="r_and_alt_1_10_car_aggr2.0" depart="37241.04" from="lane_entry_D" to="lane_exit_A" type="car_aggr2" /><trip id="r_and_alt_1_10_car_aggr2.1" depar