<?xml version='1.0' encoding='utf-8'?>
<trips><trip id="r_axs_tun_aEr_eGo_1_car_aggr4.0" depart="4571.84" from="lane_entry_A" to="lane_exit_D" type="car_aggr4" /><trip id="r_axs_tun_aAl_eEr_1_car_aggr2.0" depart="5915.23" from="lane_entry_C" to="lane_exit_B" type="car_aggr2" /><trip id="r_axs_tun_aAl_eEr_1_car_aggr1.0" depart="6629.09" from="lane_entry_C" to="lane_exit_B" type="car_aggr1" /><trip id="r_axs_tun_aAl_eEr_1_car_aggr4.0" depart="6633.07" from="lane_entry_C" to="lane_exit_B" type="car_aggr4" /><trip id="r_luz_tun_aEr_eAm_1_car_aggr4.0" depart="7021.75" from="lane_entry_A" to="lane_exit_D" type="car_aggr4" /><trip id="r_luz_tun_aEr_eAm_1_car_aggr3.1" depart="7168.18" from="lane_entry_A" to="lane_exit_D" type="car_aggr3" /><trip id="r_luz_tun_aEr_eAm_1_car_aggr3.0" depart="7259.92" from="lane_entry_A" to="lane_exit_D" type="car_aggr3" /><trip id="r_axs_tun_aAl_eEr_1_car_aggr4.1" depart="7484.93" from="lane_entry_C" to="lane_exit_B" type="car_aggr4" /><trip id="r_axs_tun_aEr_eGo_1_car_aggr3.0" depart="7654.09" from="lane_entry_A" to="lane_exit_D" type="car_aggr3" /><trip id="r_axs_tun_aEr_eGo_1_small_truck.0" depart="7783.55" from="lane_entry_A" to="lane_exit_D" type="small_truck" /><trip id="r_luz_tun_aAl_eEr_2_car_aggr4.0" depart="9273.48" from="lane_entry_C" to="lane_exit_B" type="car_aggr4" /><trip id="r_and_alt_1_2_car_aggr4.0" depart="10210.54" from="lane_entry_D" to="lane_exit_C" type="car_aggr4" /><trip id="r_axs_tun_aEr_eWa_2_car_aggr5.0" depart="10865.8" from="lane_entry_A" to="lane_exit_D" type="car_aggr5" /><trip id="r_luz_tun_aAl_eEr_3_car_aggr3.0" depart="12333.32" from="lane_entry_C" to="lane_exit_B" type="car_aggr3" /><trip id="r_luz_tun_aEr_eAm_3_car_aggr5.0" depart="12544.55" from="lane_entry_A" to="lane_exit_D" type="car_aggr5" /><trip id="r_luz_tun_aAl_eEr_3_small_truck.0" depart="13411.73" from="lane_entry_C" to="lane_exit_B" type="small_truck" /><trip id="r_luz_tun_aAl_eEr_3_car_aggr5.0" depart="13653.34" from="lane_entry_C" to="lane_exit_B" type="car_aggr5" /><trip id="r_tun_axs_KS_____3_car_aggr2.0" depart="13874.57" from="lane_entry_D" to="lane_exit_C" type="car_aggr2" /><trip id="r_tun_axs_KS_____3_car_aggr3.0" depart="14375.13" from="lane_entry_D" to="lane_exit_C" type="car_aggr3" /><trip id="r_axs_tun_aAl_eEr_3_car_aggr2.0" depart="14709.47" from="lane_entry_C" to="lane_exit_B" type="car_aggr2" /><trip id="r_tun_axs_KS_____3_car_aggr3.1" depart="15026.78" from="lane_entry_D" to="lane_exit_C" type="car_aggr3" /><trip id="r_tun_axs_KS_____3_car_aggr3.2" depart="15282.51" from="lane_entry_D" to="lane_exit_C" type="car_aggr3" /><trip id="r_luz_tun_aEr_eAm_4_car_aggr1.0" depart="15683.92" from="lane_entry_A" to="lane_exit_D" type="car_aggr1" /><trip id="r_axs_tun_aEr_eWa_4_car_aggr3.0" depart="16506.43" from="lane_entry_A" to="lane_exit_D" type="car_aggr3" /><trip id="r_axs_tun_aAl_eEr_4_small_truck.0" depart="16559.58" from="lane_entry_C" to="lane_exit_B" type="small_truck" /><trip id="r_axs_tun_aAl_eEr_4_car_aggr3.0" depart="16956.64" from="lane_entry_C" to="lane_exit_B" type="car_aggr3" /><trip id="r_axs_tun_aAl_eEr_4_car_aggr4.0" depart="17238.41" from="lane_entry_C" to="lane_exit_B" type="car_aggr4" /><trip id="r_luz_tun_aEr_eWa_4_car_aggr3.0" depart="17640.88" from="lane_entry_A" to="lane_exit_D" type="car_aggr3" /><trip id="r_luz_tun_aEr_eWa_4_car_aggr5.0" depart="17680.62" from="lane_entry_A" to="lane_exit_D" type="car_aggr5" /><trip id="r_and_alt_1_4_car_aggr3.0" depart="17836.56" from="lane_entry_D" to="lane_exit_C" type="car_aggr3" /><trip id="r_axs_tun_aAl_eEr_5_car_aggr3.0" depart="19298.42" from="lane_entry_C" to="lane_exit_B" type="car_aggr3" /><trip id="r_axs_tun_aAl_eEr_5_small_truck.0" depart="19318.54" from="lane_entry_C" to="lane_exit_B" type="small_truck" /><trip id="r_axs_tun_aAl_eEr_5_car_aggr4.0" depart="19456.53" from="lane_entry_C" to="lane_exit_B" type="car_aggr4" /><trip id="r_and_alt_1_4_car_aggr4.0" depart="19480.24" from="lane_entry_D" to="lane_exit_C" type="car_aggr4" /><trip id="r_axs_tun_aEr_eAm_5_small_truck.0" depart="19546.15" from="lane_entry_A" to="lane_exit_D" type="small_truck" /><trip id="r_axs_tun_aAl_eEr_5_car_aggr1.0" depart="19629.93" from="lane_entry_C" to="lane_exit_B" type="car_aggr1" /><trip id="r_luz_tun_aEr_eAm_5_car_aggr1.0" depart="19896.93" from="lane_entry_A" to="lane_exit_D" type="car_aggr1" /><trip id="r_axs_tun_aAl_eEr_5_car_aggr4.1" depart="20054.15" from="lane_entry_C" to="lane_exit_B" type="car_aggr4" /><trip id="r_axs_tun_aEr_eAm_5_car_aggr2.0" depart="20059.96" from="lane_entry_A" to="lane_exit_D" type="car_aggr2" /><trip id="r_axs_tun_aEr_eAm_5_big_truck.0" depart="20635.38" from="lane_entry_A" to="lane_exit_D" type="big_truck" /><trip id="r_axs_tun_aAl_eEr_5_car_aggr4.2" depart="20638.6" from="lane_entry_C" to="lane_exit_B" type="car_aggr4" /><trip id="r_axs_tun_aAl_eEr_5_small_truck.1" depart="20674.55" from="lane_entry_C" to="lane_exit_B" type="small_truck" /><trip id="r_axs_tun_aAl_eEr_5_car_aggr3.1" depart="20727.69" from="lane_entry_C" to="lane_exit_B" type="car_aggr3" /><trip id="r_axs_tun_aAl_eEr_5_car_aggr5.0" depart="20730.86" from="lane_entry_C" to="lane_exit_B" type="car_aggr5" /><trip id="r_axs_tun_aAl_eEr_5_car_aggr3.2" depart="20930.04" from="lane_entry_C" to="lane_exit_B" type="car_aggr3" /><trip id="r_axs_tun_aAl_eEr_5_car_aggr4.3" depart="20933.96" from="lane_entry_C" to="lane_exit_B" type="car_aggr4" /><trip id="r_axs_tun_aAl_eEr_5_car_aggr2.0" depart="21148.63" from="lane_entry_C" to="lane_exit_B" type="car_aggr2" /><trip id="r_axs_tun_aEr_eAm_5_car_aggr1.0" depart="21308.19" from="lane_entry_A" to="lane_exit_D" type="car_aggr1" /><trip id="r_luz_tun_aEr_eAm_5_car_aggr1.1" depart="21698.85" from="lane_entry_A" to="lane_exit_D" type="car_aggr1" /><trip id="r_axs_tun_aEr_eAm_5_car_aggr3.0" depart="21960.26" from="lane_entry_A" to="lane_exit_D" type="car_aggr3" /><trip id="r_alt_and_1_6_car_aggr3.0" depart="22137.81" from="lane_entry_C" to="lane_exit_D" type="car_aggr3" /><trip id="r_axs_tun_aAl_eEr_5_car_aggr3.3" depart="22162.74" from="lane_entry_C" to="lane_exit_B" type="car_aggr3" /><trip id="r_axs_tun_aAl_eEr_5_car_aggr4.4" depart="22530.59" from="lane_entry_C" to="lane_exit_B" type="car_aggr4" /><trip id="r_axs_tun_aAl_eEr_5_car_aggr2.1" depart="22748.32" from="lane_entry_C" to="lane_exit_B" type="car_aggr2" /><trip id="r_axs_tun_aAl_eEr_6_car_aggr4.0" depart="22799.05" from="lane_entry_C" to="lane_exit_B" type="car_aggr4" /><trip id="r_luz_tun_aEr_eAm_6_car_aggr2.0" depart="22935.61" from="lane_entry_A" to="lane_exit_D" type="car_aggr2" /><trip id="r_axs_tun_aAl_eEr_6_big_truck.0" depart="22965.43" from="lane_entry_C" to="lane_exit_B" type="big_truck" /><trip id="r_axs_tun_aAl_eEr_6_small_truck.0" depart="22969.54" from="lane_entry_C" to="lane_exit_B" type="small_truck" /><trip id="r_axs_tun_aAl_eEr_6_car_aggr4.1" depart="22974.01" from="lane_entry_C" to="lane_exit_B" type="car_aggr4" /><trip id="r_luz_tun_aAl_eEr_6_car_aggr3.0" depart="22979.2" from="lane_entry_C" to="lane_exit_B" type="car_aggr3" /><trip id="r_alt_and_1_6_big_truck.0" depart="23012.27" from="lane_entry_C" to="lane_exit_D" type="big_truck" /><trip id="r_axs_tun_aAl_eEr_6_car_aggr3.0" depart="23099.67" from="lane_entry_C" to="lane_exit_B" type="car_aggr3" /><trip id="r_luz_tun_aAl_eEr_6_car_aggr4.0" depart="23110.38" from="lane_entry_C" to="lane_exit_B" type="car_aggr4" /><trip id="r_luz_tun_aEr_eAm_6_car_aggr3.0" depart="23184.11" from="lane_entry_A" to="lane_exit_D" type="car_aggr3" /><trip id="r_luz_tun_aAl_eEr_6_car_aggr3.1" depart="23221.85" from="lane_entry_C" to="lane_exit_B" type="car_aggr3" /><trip id="r_alt_and_1_6_car_aggr4.0" depart="23364.04" from="lane_entry_C" to="lane_exit_D" type="car_aggr4" /><trip id="r_luz_tun_aAl_eEr_6_car_aggr4.1" depart="23367.93" from="lane_entry_C" to="lane_exit_B" type="car_aggr4" /><trip id="r_and_alt_1_6_car_aggr2.0" depart="23441.7" from="lane_entry_D" to="lane_exit_C" type="car_aggr2" /><trip id="r_luz_tun_aEr_eAm_6_car_aggr2.1" depart="23510.15" from="lane_entry_A" to="lane_exit_D" type="car_aggr2" /><trip id="r_alt_and_1_6_small_truck.0" depart="23525.84" from="lane_entry_C" to="lane_exit_D" type="small_truck" /><trip id="r_luz_tun_aEr_eAm_6_car_aggr1.0" depart="23526.33" from="lane_entry_A" to="lane_exit_D" type="car_aggr1" /><trip id="r_luz_tun_aEr_eAm_6_car_aggr3.1" depart="23531.82" from="lane_entry_A" to="lane_exit_D" type="car_aggr3" /><trip id="r_axs_tun_aAl_eEr_6_car_aggr3.1" depart="23575.72" from="lane_entry_C" to="lane_exit_B" type="car_aggr3" /><trip id="r_luz_tun_aEr_eAm_6_car_aggr2.2" depart="23630.3" from="lane_entry_A" to="lane_exit_D" type="car_aggr2" /><trip id="r_and_alt_1_6_car_aggr3.0" depart="23809.7" from="lane_entry_D" to="lane_exit_C" type="car_aggr3" /><trip id="r_luz_tun_aEr_eAm_6_car_aggr3.2" depart="23835.51" from="lane_entry_A" to="lane_exit_D" type="car_aggr3" /><trip id="r_luz_tun_aAl_eEr_6_car_aggr3.2" depart="23851.24" from="lane_entry_C" to="lane_exit_B" type="car_aggr3" /><trip id="r_luz_tun_aAl_eEr_6_car_aggr3.3" depart="23855.89" from="lane_entry_C" to="lane_exit_B" type="car_aggr3" /><trip id="r_axs_tun_aAl_eEr_6_car_aggr3.2" depart="23897.56" from="lane_entry_C" to="lane_exit_B" type="car_aggr3" /><trip id="r_axs_tun_aAl_eEr_6_car_aggr3.3" depart="23916.88" from="lane_entry_C" to="lane_exit_B" type="car_aggr3" /><trip id="r_luz_tun_aAl_eEr_6_car_aggr2.0" depart="23948.27" from="lane_entry_C" to="lane_exit_B" type="car_aggr2" /><trip id="r_and_alt_1_6_car_aggr3.1" depart="23958.83" from="lane_entry_D" to="lane_exit_C" type="car_aggr3" /><trip id="r_axs_tun_aAl_eEr_6_big_truck.1" depart="24025.02" from="lane_entry_C" to="lane_exit_B" type="big_truck" /><trip id="r_axs_tun_aAl_eEr_6_car_aggr1.0" depart="24070.72" from="lane_entry_C" to="lane_exit_B" type="car_aggr1" /><trip id="r_luz_tun_aAl_eEr_6_car_aggr1.0" depart="24076.93" from="lane_entry_C" to="lane_exit_B" type="car_aggr1" /><trip id="r_axs_tun_aAl_eEr_6_small_truck.1" depart="24081.19" from="lane_entry_C" to="lane_exit_B" type="small_truck" /><trip id="r_luz_tun_aAl_eEr_6_car_aggr4.2" depart="24085.31" from="lane_entry_C" to="lane_exit_B" type="car_aggr4" /><trip id="r_axs_tun_aAl_eEr_6_car_aggr5.0" depart="24089.04" from="lane_entry_C" to="lane_exit_B" type="car_aggr5" /><trip id="r_axs_tun_aAl_eEr_6_car_aggr1.1" depart="24098.31" from="lane_entry_C" to="lane_exit_B" type="car_aggr1" /><trip id="r_axs_tun_aAl_eEr_6_car_aggr4.2" depart="24124.53" from="lane_entry_C" to="lane_exit_B" type="car_aggr4" /><trip id="r_luz_tun_aEr_eAm_6_car_aggr3.3" depart="24213.34" from="lane_entry_A" to="lane_exit_D" type="car_aggr3" /><trip id="r_luz_tun_aAl_eEr_6_big_truck.0" depart="24554.68" from="lane_entry_C" to="lane_exit_B" type="big_truck" /><trip id="r_luz_tun_aAl_eEr_6_car_aggr4.3" depart="24559.25" from="lane_entry_C" to="lane_exit_B" type="car_aggr4" /><trip id="r_axs_tun_aAl_eEr_6_small_truck.2" depart="24633.06" from="lane_entry_C" to="lane_exit_B" type="small_truck" /><trip id="r_axs_tun_aAl_eEr_6_car_aggr3.4" depart="24901.88" from="lane_entry_C" to="lane_exit_B" type="car_aggr3" /><trip id="r_axs_tun_aAl_eEr_6_car_aggr2.0" depart="24907.76" from="lane_entry_C" to="lane_exit_B" type="car_aggr2" /><trip id="r_axs_tun_aAl_eEr_6_car_aggr3.5" depart="24912.71" from="lane_entry_C" to="lane_exit_B" type="car_aggr3" /><trip id="r_alt_and_1_6_car_aggr3.1" depart="24917.45" from="lane_entry_C" to="lane_exit_D" type="car_aggr3" /><trip id="r_axs_tun_aAl_eEr_6_car_aggr5.1" depart="24921.04" from="lane_entry_C" to="lane_exit_B" type="car_aggr5" /><trip id="r_and_alt_1_6_car_aggr3.2" depart="24939.53" from="lane_entry_D" to="lane_exit_C" type="car_aggr3" /><trip id="r_alt_and_1_6_small_truck.1" depart="24947.8" from="lane_entry_C" to="lane_exit_D" type="small_truck" /><trip id="r_axs_tun_aAl_eEr_6_car_aggr3.6" depart="24984.13" from="lane_entry_C" to="lane_exit_B" type="car_aggr3" /><trip id="r_luz_tun_aAl_eEr_6_car_aggr3.4" depart="24988.38" from="lane_entry_C" to="lane_exit_B" type="car_aggr3" /><trip id="r_axs_tun_aAl_eEr_6_car_aggr4.3" depart="25006.64" from="lane_entry_C" to="lane_exit_B" type="car_aggr4" /><trip id="r_luz_tun_aEr_eAm_6_car_aggr4.0" depart="25111.06" from="lane_entry_A" to="lane_exit_D" type="car_aggr4" /><trip id="r_luz_tun_aEr_eAm_6_big_truck.0" depart="25196.85" from="lane_entry_A" to="lane_exit_D" type="big_truck" /><trip id="r_luz_tun_aEr_eAm_6_car_aggr3.4" depart="25261.43" from="lane_entry_A" to="lane_exit_D" type="car_aggr3" /><trip id="r_axs_tun_aAl_eEr_6_big_truck.2" depart="25313.11" from="lane_entry_C" to="lane_exit_B" type="big_truck" /><trip id="r_axs_tun_aAl_eEr_6_car_aggr3.7" depart="25318.07" from="lane_entry_C" to="lane_exit_B" type="car_aggr3" /><trip id="r_luz_tun_aEr_eAm_6_car_aggr5.0" depart="25353.24" from="lane_entry_A" to="lane_exit_D" type="car_aggr5" /><trip id="r_luz_tun_aEr_eAm_6_car_aggr2.3" depart="25384.27" from="lane_entry_A" to="lane_exit_D" type="car_aggr2" /><trip id="r_axs_tun_aAl_eEr_6_car_aggr3.8" depart="25472.43" from="lane_entry_C" to="lane_exit_B" type="car_aggr3" /><trip id="r_axs_tun_aAl_eEr_6_car_aggr2.1" depart="25490.2" from="lane_entry_C" to="lane_exit_B" type="car_aggr2" /><trip id="r_luz_tun_aAl_eEr_6_car_aggr3.5" depart="25692.42" from="lane_entry_C" to="lane_exit_B" type="car_aggr3" /><trip id="r_luz_tun_aAl_eEr_6_small_truck.0" depart="25696.41" from="lane_entry_C" to="lane_exit_B" type="small_truck" /><trip id="r_and_alt_1_6_small_truck.0" depart="25723.09" from="lane_entry_D" to="lane_exit_C" type="small_truck" /><trip id="r_and_alt_1_6_car_aggr4.0" depart="25726.89" from="lane_entry_D" to="lane_exit_C" type="car_aggr4" /><trip id="r_luz_tun_aAl_eEr_6_car_aggr2.1" depart="25740.51" from="lane_entry_C" to="lane_exit_B" type="car_aggr2" /><trip id="r_luz_tun_aEr_eAm_6_car_aggr5.1" depart="25749.14" from="lane_entry_A" to="lane_exit_D" type="car_aggr5" /><trip id="r_luz_tun_aEr_eAm_6_car_aggr2.4" depart="25771.31" from="lane_entry_A" to="lane_exit_D" type="car_aggr2" /><trip id="r_luz_tun_aAl_eEr_6_car_aggr2.2" depart="25788.87" from="lane_entry_C" to="lane_exit_B" type="car_aggr2" /><trip id="r_luz_tun_aAl_eEr_6_car_aggr4.4" depart="25792.59" from="lane_entry_C" to="lane_exit_B" type="car_aggr4" /><trip id="r_luz_tun_aAl_eEr_6_car_aggr4.5" depart="25796.69" from="lane_entry_C" to="lane_exit_B" type="car_aggr4" /><trip id="r_axs_tun_aAl_eEr_6_car_aggr3.9" depart="25825.4" from="lane_entry_C" to="lane_exit_B" type="car_aggr3" /><trip id="r_axs_tun_aAl_eEr_6_car_aggr4.4" depart="25829.16" from="lane_entry_C" to="lane_exit_B" type="car_aggr4" /><trip id="r_luz_tun_aEr_eAm_6_car_aggr1.1" depart="25907.41" from="lane_entry_A" to="lane_exit_D" type="car_aggr1" /><trip id="r_and_alt_1_6_car_aggr2.1" depart="25959.2" from="lane_entry_D" to="lane_exit_C" type="car_aggr2" /><trip id="r_and_alt_1_6_car_aggr5.0" depart="26008.7" from="lane_entry_D" to="lane_exit_C" type="car_aggr5" /><trip id="r_luz_tun_aAl_eEr_6_small_truck.1" depart="26021.57" from="lane_entry_C" to="lane_exit_B" type="small_truck" /><trip id="r_luz_tun_aAl_eEr_6_big_truck.1" depart="26046.38" from="lane_entry_C" to="lane_exit_B" type="big_truck" /><trip id="r_luz_tun_aAl_eEr_6_car_aggr3.6" depart="26109.88" from="lane_entry_C" to="lane_exit_B" type="car_aggr3" /><trip id="r_luz_tun_aAl_eEr_6_car_aggr1.1" depart="26135.09" from="lane_entry_C" to="lane_exit_B" type="car_aggr1" /><trip id="r_luz_tun_aEr_eAm_6_car_aggr1.2" depart="26135.11" from="lane_entry_A" to="lane_exit_D" type="car_aggr1" /><trip id="r_luz_tun_aAl_eEr_6_car_aggr4.6" depart="26229.67" from="lane_entry_C" to="lane_exit_B" type="car_aggr4" /><trip id="r_luz_tun_aEr_eAm_7_small_truck.0" depart="26331.42" from="lane_entry_A" to="lane_exit_D" type="small_truck" /><trip id="r_luz_tun_aAl_eEr_6_car_aggr2.3" depart="26386.05" from="lane_entry_C" to="lane_exit_B" type="car_aggr2" /><trip id="r_luz_tun_aEr_eAm_7_car_aggr3.0" depart="26386.63" from="lane_entry_A" to="lane_exit_D" type="car_aggr3" /><trip id="r_luz_tun_aEr_eWa_7_small_truck.0" depart="26434.59" from="lane_entry_A" to="lane_exit_D" type="small_truck" /><trip id="r_luz_tun_aEr_eAm_7_car_aggr3.1" depart="26476.69" from="lane_entry_A" to="lane_exit_D" type="car_aggr3" /><trip id="r_luz_tun_aEr_eAm_7_small_truck.2" depart="26480.71" from="lane_entry_A" to="lane_exit_D" type="small_truck" /><trip id="r_luz_tun_aEr_eAm_7_car_aggr2.0" depart="26486.19" from="lane_entry_A" to="lane_exit_D" type="car_aggr2" /><trip id="r_luz_tun_aEr_eAm_7_car_aggr4.1" depart="26524.31" from="lane_entry_A" to="lane_exit_D" type="car_aggr4" /><trip id="r_luz_tun_aEr_eAm_7_small_truck.3" depart="26538.62" from="lane_entry_A" to="lane_exit_D" type="small_truck" /><trip id="r_luz_tun_aEr_eAm_7_small_truck.1" depart="26550.23" from="lane_entry_A" to="lane_exit_D" type="small_truck" /><trip id="r_luz_tun_aEr_eAm_7_car_aggr5.0" depart="26566.67" from="lane_entry_A" to="lane_exit_D" type="car_aggr5" /><trip id="r_luz_tun_aAl_eEr_7_car_aggr3.1" depart="26583.28" from="lane_entry_C" to="lane_exit_B" type="car_aggr3" /><trip id="r_luz_tun_aAl_eEr_7_car_aggr3.0" depart="26613.38" from="lane_entry_C" to="lane_exit_B" type="car_aggr3" /><trip id="r_luz_tun_aAl_eEr_7_car_aggr3.2" depart="26681.24" from="lane_entry_C" to="lane_exit_B" type="car_aggr3" /><trip id="r_luz_tun_aAl_eEr_7_car_aggr4.0" depart="26726.98" from="lane_entry_C" to="lane_exit_B" type="car_aggr4" /><trip id="r_luz_tun_aAl_eEr_7_car_aggr3.3" depart="26731.58" from="lane_entry_C" to="lane_exit_B" type="car_aggr3" /><trip id="r_luz_tun_aAl_eEr_7_car_aggr2.0" depart="26737.82" from="lane_entry_C" to="lane_exit_B" type="car_aggr2" /><trip id="r_luz_tun_aEr_eAm_7_car_aggr4.0" depart="26775.35" from="lane_entry_A" to="lane_exit_D" type="car_aggr4" /><trip id="r_luz_tun_aAl_eEr_7_small_truck.0" depart="26806.68" from="lane_entry_C" to="lane_exit_B" type="small_truck" /><trip id="r_luz_tun_aAl_eEr_7_car_aggr3.4" depart="26843.26" from="lane_entry_C" to="lane_exit_B" type="car_aggr3" /><trip id="r_luz_tun_aAl_eEr_7_car_aggr5.0" depart="26846.51" from="lane_entry_C" to="lane_exit_B" type="car_aggr5" /><trip id="r_luz_tun_aAl_eEr_7_car_aggr3.5" depart="26851.58" from="lane_entry_C" to="lane_exit_B" type="car_aggr3" /><trip id="r_luz_tun_aAl_eEr_7_car_aggr1.0" depart="26859.12" from="lane_entry_C" to="lane_exit_B" type="car_aggr1" /><trip id="r_luz_tun_aAl_eEr_7_car_aggr4.1" depart="26863.11" from="lane_entry_C" to="lane_exit_B" type="car_aggr4" /><trip id="r_luz_tun_aAl_eEr_7_motorbike.1" depart="26867.05" from="lane_entry_C" to="lane_exit_B" type="motorbike" /><trip id="r_luz_tun_aAl_eEr_7_motorbike.0" depart="26870.93" from="lane_entry_C" to="lane_exit_B" type="motorbike" /><trip id="r_alt_and_1_7_car_aggr4.0" depart="26875.17" from="lane_entry_C" to="lane_exit_D" type="car_aggr4" /><trip id="r_luz_tun_aAl_eEr_7_car_aggr5.1" depart="26952.86" from="lane_entry_C" to="lane_exit_B" type="car_aggr5" /><trip id="r_luz_tun_aAl_eEr_7_small_truck.1" depart="26957.28" from="lane_entry_C" to="lane_exit_B" type="small_truck" /><trip id="r_luz_tun_aEr_eAm_7_small_truck.4" depart="26983.5" from="lane_entry_A" to="lane_exit_D" type="small_truck" /><trip id="r_luz_tun_aEr_eAm_7_car_aggr3.2" depart="26992.29" from="lane_entry_A" to="lane_exit_D" type="car_aggr3" /><trip id="r_luz_tun_aEr_eAm_7_car_aggr4.2" depart="26996.39" from="lane_entry_A" to="lane_exit_D" type="car_aggr4" /><trip id="r_luz_tun_aEr_eAm_7_car_aggr4.3" depart="26999.95" from="lane_entry_A" to="lane_exit_D" type="car_aggr4" /><trip id="r_luz_tun_aEr_eAm_7_car_aggr3.3" depart="27005.09" from="lane_entry_A" to="lane_exit_D" type="car_aggr3" /><trip id="r_luz_tun_aEr_eAm_7_car_aggr3.5" depart="27009.45" from="lane_entry_A" to="lane_exit_D" type="car_aggr3" /><trip id="r_luz_tun_aAl_eEr_7_car_aggr1.1" depart="27009.7" from="lane_entry_C" to="lane_exit_B" type="car_aggr1" /><trip id="r_luz_tun_aEr_eAm_7_car_aggr3.4" depart="27014.06" from="lane_entry_A" to="lane_exit_D" type="car_aggr3" /><trip id="r_luz_tun_aAl_eEr_7_car_aggr2.1" depart="27015.16" from="lane_entry_C" to="lane_exit_B" type="car_aggr2" /><trip id="r_luz_tun_aAl_eEr_7_car_aggr3.6" depart="27020.13" from="lane_entry_C" to="lane_exit_B" type="car_aggr3" /><trip id="r_luz_tun_aAl_eEr_7_car_aggr3.7" depart="27024.91" from="lane_entry_C" to="lane_exit_B" type="car_aggr3" /><trip id="r_luz_tun_aEr_eAm_7_car_aggr3.6" depart="27030.61" from="lane_entry_A" to="lane_exit_D" type="car_aggr3" /><trip id="r_luz_tun_aEr_eAm_7_car_aggr2.1" depart="27038.43" from="lane_entry_A" to="lane_exit_D" type="car_aggr2" /><trip id="r_luz_tun_aAl_eEr_7_big_truck.0" depart="27063.36" from="lane_entry_C" to="lane_exit_B" type="big_truck" /><trip id="r_luz_tun_aAl_eEr_7_car_aggr2.2" depart="27069.49" from="lane_entry_C" to="lane_exit_B" type="car_aggr2" /><trip id="r_luz_tun_aAl_eEr_7_small_truck.2" depart="27105.0" from="lane_entry_C" to="lane_exit_B" type="small_truck" /><trip id="r_luz_tun_aAl_eEr_7_car_aggr3.8" depart="27109.42" from="lane_entry_C" to="lane_exit_B" type="car_aggr3" /><trip id="r_luz_tun_aAl_eEr_7_motorbike.2" depart="27154.21" from="lane_entry_C" to="lane_exit_B" type="motorbike" /><trip id="r_luz_tun_aEr_eGo_7_car_aggr3.0" depart="27171.79" from="lane_entry_A" to="lane_exit_D" type="car_aggr3" /><trip id="r_luz_tun_aEr_eAm_7_car_aggr2.2" depart="27205.75" from="lane_entry_A" to="lane_exit_D" type="car_aggr2" /><trip id="r_luz_tun_aEr_eAm_7_small_truck.5" depart="27211.81" from="lane_entry_A" to="lane_exit_D" type="small_truck" /><trip id="r_luz_tun_aEr_eAm_7_car_aggr2.3" depart="27229.95" from="lane_entry_A" to="lane_exit_D" type="car_aggr2" /><trip id="r_luz_tun_aEr_eAm_7_car_aggr3.7" depart="27283.58" from="lane_entry_A" to="lane_exit_D" type="car_aggr3" /><trip id="r_luz_tun_aEr_eAm_7_car_aggr3.8" depart="27288.81" from="lane_entry_A" to="lane_exit_D" type="car_aggr3" /><trip id="r_luz_tun_aAl_eEr_7_car_aggr1.2" depart="27307.63" from="lane_entry_C" to="lane_exit_B" type="car_aggr1" /><trip id="r_luz_tun_aAl_eEr_7_car_aggr5.2" depart="27314.9" from="lane_entry_C" to="lane_exit_B" type="car_aggr5" /><trip id="r_luz_tun_aAl_eEr_7_motorbike.3" depart="27318.87" from="lane_entry_C" to="lane_exit_B" type="motorbike" /><trip id="r_luz_tun_aAl_eEr_7_car_aggr3.9" depart="27323.61" from="lane_entry_C" to="lane_exit_B" type="car_aggr3" /><trip id="r_luz_tun_aAl_eEr_7_motorbike.4" depart="27327.74" from="lane_entry_C" to="lane_exit_B" type="motorbike" /><trip id="r_luz_tun_aAl_eEr_7_car_aggr3.10" depart="27332.36" from="lane_entry_C" to="lane_exit_B" type="car_aggr3" /><trip id="r_luz_tun_aAl_eEr_7_car_aggr1.3" depart="27339.62" from="lane_entry_C" to="lane_exit_B" type="car_aggr1" /><trip id="r_luz_tun_aEr_eAm_7_big_truck.0" depart="27339.62" from="lane_entry_A" to="lane_exit_D" type="big_truck" /><trip id="r_luz_tun_aAl_eEr_7_small_truck.3" depart="27343.75" from="lane_entry_C" to="lane_exit_B" type="small_truck" /><trip id="r_luz_tun_aAl_eEr_7_car_aggr3.11" depart="27348.52" from="lane_entry_C" to="lane_exit_B" type="car_aggr3" /><trip id="r_luz_tun_aAl_eEr_7_car_aggr3.12" depart="27353.27" from="lane_entry_C" to="lane_exit_B" type="car_aggr3" /><trip id="r_luz_tun_aAl_eEr_7_car_aggr4.3" depart="27357.63" from="lane_entry_C" to="lane_exit_B" type="car_aggr4" /><trip id="r_luz_tun_aEr_eAm_7_car_aggr3.9" depart="27361.55" from="lane_entry_A" to="lane_exit_D" type="car_aggr3" /><trip id="r_luz_tun_aAl_eEr_7_car_aggr3.14" depart="27362.53" from="lane_entry_C" to="lane_exit_B" type="car_aggr3" /><trip id="r_luz_tun_aAl_eEr_7_car_aggr4.4" depart="27366.85" from="lane_entry_C" to="lane_exit_B" type="car_aggr4" /><trip id="r_luz_tun_aAl_eEr_7_car_aggr5.3" depart="27370.53" from="lane_entry_C" to="lane_exit_B" type="car_aggr5" /><trip id="r_and_alt_1_7_car_aggr3.0" depart="27370.85" from="lane_entry_D" to="lane_exit_C" type="car_aggr3" /><trip id="r_luz_tun_aEr_eAm_7_car_aggr3.10" depart="27372.7" from="lane_entry_A" to="lane_exit_D" type="car_aggr3" /><trip id="r_luz_tun_aAl_eEr_7_car_aggr3.13" depart="27375.64" from="lane_entry_C" to="lane_exit_B" type="car_aggr3" /><trip id="r_and_alt_1_7_car_aggr2.0" depart="27376.47" from="lane_entry_D" to="lane_exit_C" type="car_aggr2" /><trip id="r_and_alt_1_7_car_aggr5.0" depart="27379.64" from="lane_entry_D" to="lane_exit_C" type="car_aggr5" /><trip id="r_luz_tun_aAl_eEr_7_small_truck.4" depart="27379.88" from="lane_entry_C" to="lane_exit_B" type="small_truck" /><trip id="r_alt_and_1_7_car_aggr1.0" depart="27386.88" from="lane_entry_C" to="lane_exit_D" type="car_aggr1" /><trip id="r_luz_tun_aAl_eEr_7_car_aggr4.5" depart="27391.03" from="lane_entry_C" to="lane_exit_B" type="car_aggr4" /><trip id="r_luz_tun_aAl_eEr_7_small_truck.5" depart="27395.37" from="lane_entry_C" to="lane_exit_B" type="small_truck" /><trip id="r_luz_tun_aAl_eEr_7_small_truck.6" depart="27399.5" from="lane_entry_C" to="lane_exit_B" type="small_truck" /><trip id="r_luz_tun_aAl_eEr_7_car_aggr2.3" depart="27442.86" from="lane_entry_C" to="lane_exit_B" type="car_aggr2" /><trip id="r_luz_tun_aAl_eEr_7_small_truck.7" depart="27446.6" from="lane_entry_C" to="lane_exit_B" type="small_truck" /><trip id="r_luz_tun_aAl_eEr_7_small_truck.8" depart="27450.53" from="lane_entry_C" to="lane_exit_B" type="small_truck" /><trip id="r_luz_tun_aAl_eEr_7_small_truck.9" depart="27454.86" from="lane_entry_C" to="lane_exit_B" type="small_truck" /><trip id="r_luz_tun_aEr_eAm_7_small_truck.6" depart="27456.81" from="lane_entry_A" to="lane_exit_D" type="small_truck" /><trip id="r_luz_tun_aEr_eAm_7_car_aggr3.11" depart="27461.3" from="lane_entry_A" to="lane_exit_D" type="car_aggr3" /><trip id="r_luz_tun_aAl_eEr_7_car_aggr2.4" depart="27461.36" from="lane_entry_C" to="lane_exit_B" type="car_aggr2" /><trip id="r_luz_tun_aAl_eEr_7_car_aggr3.18" depart="27466.22" from="lane_entry_C" to="lane_exit_B" type="car_aggr3" /><trip id="r_luz_tun_aAl_eEr_7_small_truck.10" depart="27470.42" from="lane_entry_C" to="lane_exit_B" type="small_truck" /><trip id="r_luz_tun_aAl_eEr_7_car_aggr3.15" depart="27475.24" from="lane_entry_C" to="lane_exit_B" type="car_aggr3" /><trip id="r_luz_tun_aAl_eEr_7_car_aggr3.17" depart="27480.18" from="lane_entry_C" to="lane_exit_B" type="car_aggr3" /><trip id="r_luz_tun_aEr_eWa_7_car_aggr1.0" depart="27481.69" from="lane_entry_A" to="lane_exit_D" type="car_aggr1" /><trip id="r_luz_tun_aAl_eEr_7_car_aggr3.19" depart="27484.89" from="lane_entry_C" to="lane_exit_B" type="car_aggr3" /><trip id="r_luz_tun_aAl_eEr_7_car_aggr3.20" depart="27489.82" from="lane_entry_C" to="lane_exit_B" type="car_aggr3" /><trip id="r_luz_tun_aEr_eAm_7_car_aggr3.13" depart="27527.4" from="lane_entry_A" to="lane_exit_D" type="car_aggr3" /><trip id="r_luz_tun_aEr_eAm_7_car_aggr3.12" depart="27551.34" from="lane_entry_A" to="lane_exit_D" type="car_aggr3" /><trip id="r_luz_tun_aEr_eAm_7_car_aggr1.0" depart="27559.44" from="lane_entry_A" to="lane_exit_D" type="car_aggr1" /><trip id="r_luz_tun_aEr_eAm_7_motorbike.0" depart="27563.14" from="lane_entry_A" to="lane_exit_D" type="motorbike" /><trip id="r_luz_tun_aEr_eAm_7_small_truck.7" depart="27570.15" from="lane_entry_A" to="lane_exit_D" type="small_truck" /><trip id="r_luz_tun_aEr_eWa_7_car_aggr3.0" depart="27574.53" from="lane_entry_A" to="lane_exit_D" type="car_aggr3" /><trip id="r_luz_tun_aEr_eWa_7_car_aggr4.1" depart="27578.33" from="lane_entry_A" to="lane_exit_D" type="car_aggr4" /><trip id="r_luz_tun_aEr_eAm_7_car_aggr3.14" depart="27583.08" from="lane_entry_A" to="lane_exit_D" type="car_aggr3" /><trip id="r_luz_tun_aEr_eAm_7_car_aggr4.5" depart="27596.36" from="lane_entry_A" to="lane_exit_D" type="car_aggr4" /><trip id="r_luz_tun_aEr_eGo_7_car_aggr3.1" depart="27601.36" from="lane_entry_A" to="lane_exit_D" type="car_aggr3" /><trip id="r_luz_tun_aEr_eWa_7_car_aggr4.0" depart="27605.0" from="lane_entry_A" to="lane_exit_D" type="car_aggr4" /><trip id="r_luz_tun_aAl_eEr_7_car_aggr3.16" depart="27618.66" from="lane_entry_C" to="lane_exit_B" type="car_aggr3" /><trip id="r_luz_tun_aEr_eAm_7_big_truck.1" depart="27623.18" from="lane_entry_A" to="lane_exit_D" type="big_truck" /><trip id="r_luz_tun_aAl_eEr_7_car_aggr1.4" depart="27625.67" from="lane_entry_C" to="lane_exit_B" type="car_aggr1" /><trip id="r_luz_tun_aAl_eEr_7_car_aggr4.6" depart="27630.03" from="lane_entry_C" to="lane_exit_B" type="car_aggr4" /><trip id="r_luz_tun_aAl_eEr_7_car_aggr3.21" depart="27634.92" from="lane_entry_C" to="lane_exit_B" type="car_aggr3" /><trip id="r_luz_tun_aAl_eEr_7_car_aggr4.7" depart="27639.07" from="lane_entry_C" to="lane_exit_B" type="car_aggr4" /><trip id="r_luz_tun_aAl_eEr_7_car_aggr3.22" depart="27644.1" from="lane_entry_C" to="lane_exit_B" type="car_aggr3" /><trip id="r_luz_tun_aEr_eAm_7_car_aggr4.4" depart="27658.33" from="lane_entry_A" to="lane_exit_D" type="car_aggr4" /><trip id="r_luz_tun_aAl_eEr_7_car_aggr4.8" depart="27704.6" from="lane_entry_C" to="lane_exit_B" type="car_aggr4" /><trip id="r_luz_tun_aEr_eAm_7_car_aggr1.1" depart="27762.12" from="lane_entry_A" to="lane_exit_D" type="car_aggr1" /><trip id="r_luz_tun_aEr_eWa_7_big_truck.0" depart="27803.34" from="lane_entry_A" to="lane_exit_D" type="big_truck" /><trip id="r_luz_tun_aEr_eWa_7_car_aggr2.0" depart="27809.13" from="lane_entry_A" to="lane_exit_D" type="car_aggr2" /><trip id="r_luz_tun_aEr_eAm_7_car_aggr4.7" depart="27812.71" from="lane_entry_A" to="lane_exit_D" type="car_aggr4" /><trip id="r_luz_tun_aEr_eAm_7_car_aggr4.6" depart="27833.52" from="lane_entry_A" to="lane_exit_D" type="car_aggr4" /><trip id="r_luz_tun_aEr_eAm_7_car_aggr2.4" depart="27840.49" from="lane_entry_A" to="lane_exit_D" type="car_aggr2" /><trip id="r_luz_tun_aEr_eAm_7_car_aggr5.1" depart="27843.61" from="lane_entry_A" to="lane_exit_D" type="car_aggr5" /><trip id="r_luz_tun_aEr_eAm_7_car_aggr3.16" depart="27901.53" from="lane_entry_A" to="lane_exit_D" type="car_aggr3" /><trip id="r_and_alt_1_7_big_truck.0" depart="27912.22" from="lane_entry_D" to="lane_exit_C" type="big_truck" /><trip id="r_and_alt_1_