<?xml version='1.0' encoding='utf-8'?>
<trips><trip id="r_tun_axs_KS_____1_small_truck.0" depart="6109.02" from="lane_entry_B" to="lane_exit_A" type="small_truck" /><trip id="r_alt_and_1_1_car_aggr4.0" depart="6444.19" from="lane_entry_A" to="lane_exit_B" type="car_aggr4" /><trip id="r_tun_axs_KS_____1_motorbike.0" depart="6514.78" from="lane_entry_B" to="lane_exit_A" type="motorbike" /><trip id="r_tun_axs_KS_____1_car_aggr2.0" depart="6669.32" from="lane_entry_B" to="lane_exit_A" type="car_aggr2" /><trip id="r_alt_and_1_1_car_aggr4.1" depart="6865.16" from="lane_entry_A" to="lane_exit_B" type="car_aggr4" /><trip id="r_tun_axs_KS_____1_car_aggr2.1" depart="6991.38" from="lane_entry_B" to="lane_exit_A" type="car_aggr2" /><trip id="r_and_alt_1_1_car_aggr3.0" depart="7498.27" from="lane_entry_B" to="lane_exit_A" type="car_aggr3" /><trip id="r_tun_axs_KS_____1_car_aggr4.0" depart="7825.54" from="lane_entry_B" to="lane_exit_A" type="car_aggr4" /><trip id="r_tun_axs_KS_____1_car_aggr5.0" depart="8351.63" from="lane_entry_B" to="lane_exit_A" type="car_aggr5" /><trip id="r_alt_and_1_1_motorbike.0" depart="8508.22" from="lane_entry_A" to="lane_exit_B" type="motorbike" /><trip id="r_alt_and_1_3_car_aggr3.0" depart="14910.92" from="lane_entry_A" to="lane_exit_B" type="car_aggr3" /><trip id="r_and_alt_1_4_small_truck.0" depart="16557.04" from="lane_entry_B" to="lane_exit_A" type="small_truck" /><trip id="r_and_alt_1_4_car_aggr1.0" depart="18646.17" from="lane_entry_B" to="lane_exit_A" type="car_aggr1" /><trip id="r_and_alt_1_4_small_truck.1" depart="18649.76" from="lane_entry_B" to="lane_exit_A" type="small_truck" /><trip id="r_alt_and_1_5_big_truck.0" depart="21770.88" from="lane_entry_A" to="lane_exit_B" type="big_truck" /><trip id="r_ams_was_1_6_car_aggr2.0" depart="22302.22" from="lane_entry_A" to="lane_exit_B" type="car_aggr2" /><trip id="r_alt_and_1_5_car_aggr2.0" depart="22375.01" from="lane_entry_A" to="lane_exit_B" type="car_aggr2" /><trip id="r_luz_oba_KS_____5_car_aggr4.0" depart="22422.62" from="lane_entry_A" to="lane_exit_B" type="car_aggr4" /><trip id="r_alt_and_1_5_car_aggr3.0" depart="22426.98" from="lane_entry_A" to="lane_exit_B" type="car_aggr3" /><trip id="r_ams_was_1_6_car_aggr1.0" depart="23465.04" from="lane_entry_A" to="lane_exit_B" type="car_aggr1" /><trip id="r_luz_oba_KS_____5_car_aggr3.0" depart="23538.11" from="lane_entry_A" to="lane_exit_B" type="car_aggr3" /><trip id="r_ams_was_1_6_car_aggr1.1" depart="24239.06" from="lane_entry_A" to="lane_exit_B" type="car_aggr1" /><trip id="r_ams_was_1_6_car_aggr4.0" depart="24422.96" from="lane_entry_A" to="lane_exit_B" type="car_aggr4" /><trip id="r_ams_was_1_6_car_aggr4.1" depart="25317.34" from="lane_entry_A" to="lane_exit_B" type="car_aggr4" /><trip id="r_ams_was_1_6_car_aggr4.2" depart="25321.06" from="lane_entry_A" to="lane_exit_B" type="car_aggr4" /><trip id="r_ams_was_1_7_car_aggr4.0" depart="25752.03" from="lane_entry_A" to="lane_exit_B" type="car_aggr4" /><trip id="r_ams_was_1_7_car_aggr2.0" depart="25757.89" from="lane_entry_A" to="lane_exit_B" type="car_aggr2" /><trip id="r_ams_was_1_7_car_aggr2.1" depart="25844.21" from="lane_entry_A" to="lane_exit_B" type="car_aggr2" /><trip id="r_ams_was_1_7_car_aggr2.2" depart="25989.57" from="lane_entry_A" to="lane_exit_B" type="car_aggr2" /><trip id="r_ams_was_1_7_car_aggr3.0" depart="26021.45" from="lane_entry_A" to="lane_exit_B" type="car_aggr3" /><trip id="r_ams_was_1_7_car_aggr4.1" depart="26073.85" from="lane_entry_A" to="lane_exit_B" type="car_aggr4" /><trip id="r_ams_was_1_7_car_aggr3.1" depart="26078.31" from="lane_entry_A" to="lane_exit_B" type="car_aggr3" /><trip id="r_ams_was_1_7_small_truck.0" depart="26082.21" from="lane_entry_A" to="lane_exit_B" type="small_truck" /><trip id="r_ams_was_1_7_car_aggr3.2" depart="26093.64" from="lane_entry_A" to="lane_exit_B" type="car_aggr3" /><trip id="r_ams_was_1_7_car_aggr3.3" depart="26097.74" from="lane_entry_A" to="lane_exit_B" type="car_aggr3" /><trip id="r_ams_was_1_7_car_aggr5.0" depart="26100.77" from="lane_entry_A" to="lane_exit_B" type="car_aggr5" /><trip id="r_ams_was_1_7_car_aggr3.4" depart="26105.61" from="lane_entry_A" to="lane_exit_B" type="car_aggr3" /><trip id="r_ams_was_1_7_car_aggr3.5" depart="26145.5" from="lane_entry_A" to="lane_exit_B" type="car_aggr3" /><trip id="r_and_alt_1_7_car_aggr3.0" depart="26209.4" from="lane_entry_B" to="lane_exit_A" type="car_aggr3" /><trip id="r_and_alt_1_7_car_aggr3.1" depart="26213.63" from="lane_entry_B" to="lane_exit_A" type="car_aggr3" /><trip id="r_and_alt_1_7_car_aggr3.2" depart="26293.01" from="lane_entry_B" to="lane_exit_A" type="car_aggr3" /><trip id="r_ams_was_1_7_motorbike.0" depart="26403.32" from="lane_entry_A" to="lane_exit_B" type="motorbike" /><trip id="r_ams_was_1_7_motorbike.1" depart="26406.81" from="lane_entry_A" to="lane_exit_B" type="motorbike" /><trip id="r_ams_was_1_7_car_aggr3.6" depart="26496.08" from="lane_entry_A" to="lane_exit_B" type="car_aggr3" /><trip id="r_ams_was_1_7_car_aggr3.7" depart="26566.35" from="lane_entry_A" to="lane_exit_B" type="car_aggr3" /><trip id="r_and_alt_1_7_car_aggr4.0" depart="26576.83" from="lane_entry_B" to="lane_exit_A" type="car_aggr4" /><trip id="r_ams_was_1_7_car_aggr3.8" depart="26761.86" from="lane_entry_A" to="lane_exit_B" type="car_aggr3" /><trip id="r_ams_was_1_7_big_truck.0" depart="26953.7" from="lane_entry_A" to="lane_exit_B" type="big_truck" /><trip id="r_ams_was_1_7_car_aggr2.3" depart="26959.36" from="lane_entry_A" to="lane_exit_B" type="car_aggr2" /><trip id="r_ams_was_1_7_car_aggr3.9" depart="26963.67" from="lane_entry_A" to="lane_exit_B" type="car_aggr3" /><trip id="r_ams_was_1_7_car_aggr2.4" depart="26969.24" from="lane_entry_A" to="lane_exit_B" type="car_aggr2" /><trip id="r_ams_was_1_7_car_aggr3.10" depart="27185.75" from="lane_entry_A" to="lane_exit_B" type="car_aggr3" /><trip id="r_ams_was_1_7_small_truck.1" depart="27273.44" from="lane_entry_A" to="lane_exit_B" type="small_truck" /><trip id="r_ams_was_1_7_car_aggr4.2" depart="27277.21" from="lane_entry_A" to="lane_exit_B" type="car_aggr4" /><trip id="r_ams_was_1_7_car_aggr3.11" depart="27434.51" from="lane_entry_A" to="lane_exit_B" type="car_aggr3" /><trip id="r_ams_was_1_7_car_aggr2.5" depart="27472.0" from="lane_entry_A" to="lane_exit_B" type="car_aggr2" /><trip id="r_ams_was_1_7_car_aggr2.6" depart="27488.62" from="lane_entry_A" to="lane_exit_B" type="car_aggr2" /><trip id="r_ams_was_1_7_car_aggr1.0" depart="27495.07" from="lane_entry_A" to="lane_exit_B" type="car_aggr1" /><trip id="r_and_alt_1_7_car_aggr3.3" depart="27511.98" from="lane_entry_B" to="lane_exit_A" type="car_aggr3" /><trip id="r_ams_was_1_7_car_aggr3.12" depart="27684.27" from="lane_entry_A" to="lane_exit_B" type="car_aggr3" /><trip id="r_ams_was_1_7_car_aggr3.13" depart="27757.87" from="lane_entry_A" to="lane_exit_B" type="car_aggr3" /><trip id="r_ams_was_1_7_motorbike.2" depart="27811.41" from="lane_entry_A" to="lane_exit_B" type="motorbike" /><trip id="r_ams_was_1_7_car_aggr3.14" depart="27988.13" from="lane_entry_A" to="lane_exit_B" type="car_aggr3" /><trip id="r_ams_was_1_7_car_aggr2.7" depart="27993.86" from="lane_entry_A" to="lane_exit_B" type="car_aggr2" /><trip id="r_alt_and_1_7_car_aggr4.0" depart="27997.6" from="lane_entry_A" to="lane_exit_B" type="car_aggr4" /><trip id="r_and_alt_1_7_car_aggr3.4" depart="28120.92" from="lane_entry_B" to="lane_exit_A" type="car_aggr3" /><trip id="r_ams_was_1_7_big_truck.1" depart="28322.84" from="lane_entry_A" to="lane_exit_B" type="big_truck" /><trip id="r_ams_was_1_7_car_aggr3.15" depart="28390.58" from="lane_entry_A" to="lane_exit_B" type="car_aggr3" /><trip id="r_ams_was_1_7_car_aggr2.8" depart="28470.53" from="lane_entry_A" to="lane_exit_B" type="car_aggr2" /><trip id="r_ams_was_1_7_car_aggr3.16" depart="28478.13" from="lane_entry_A" to="lane_exit_B" type="car_aggr3" /><trip id="r_ams_was_1_7_car_aggr4.3" depart="28526.44" from="lane_entry_A" to="lane_exit_B" type="car_aggr4" /><trip id="r_and_alt_1_7_motorbike.0" depart="28538.96" from="lane_entry_B" to="lane_exit_A" type="motorbike" /><trip id="r_ams_was_1_7_small_truck.2" depart="28689.27" from="lane_entry_A" to="lane_exit_B" type="small_truck" /><trip id="r_and_alt_1_7_car_aggr3.5" depart="28741.69" from="lane_entry_B" to="lane_exit_A" type="car_aggr3" /><trip id="r_ams_was_1_7_car_aggr4.4" depart="28761.62" from="lane_entry_A" to="lane_exit_B" type="car_aggr4" /><trip id="r_ams_was_1_7_car_aggr3.17" depart="29235.55" from="lane_entry_A" to="lane_exit_B" type="car_aggr3" /><trip id="r_and_alt_1_7_small_truck.0" depart="29319.61" from="lane_entry_B" to="lane_exit_A" type="small_truck" /><trip id="r_and_alt_1_7_motorbike.1" depart="29323.56" from="lane_entry_B" to="lane_exit_A" type="motorbike" /><trip id="r_and_alt_1_7_car_aggr3.6" depart="29554.69" from="lane_entry_B" to="lane_exit_A" type="car_aggr3" /><trip id="r_and_alt_1_8_car_aggr3.0" depart="29888.5" from="lane_entry_B" to="lane_exit_A" type="car_aggr3" /><trip id="r_and_alt_1_8_car_aggr2.0" depart="30107.5" from="lane_entry_B" to="lane_exit_A" type="car_aggr2" /><trip id="r_alt_and_1_8_car_aggr3.0" depart="30234.26" from="lane_entry_A" to="lane_exit_B" type="car_aggr3" /><trip id="r_and_alt_1_8_small_truck.0" depart="30626.34" from="lane_entry_B" to="lane_exit_A" type="small_truck" /><trip id="r_and_alt_1_8_car_aggr4.0" depart="30630.31" from="lane_entry_B" to="lane_exit_A" type="car_aggr4" /><trip id="r_alt_and_1_8_car_aggr2.0" depart="30637.33" from="lane_entry_A" to="lane_exit_B" type="car_aggr2" /><trip id="r_alt_and_1_8_car_aggr4.0" depart="30667.39" from="lane_entry_A" to="lane_exit_B" type="car_aggr4" /><trip id="r_and_alt_1_8_car_aggr3.1" depart="30684.87" from="lane_entry_B" to="lane_exit_A" type="car_aggr3" /><trip id="r_and_alt_1_8_car_aggr2.1" depart="30832.66" from="lane_entry_B" to="lane_exit_A" type="car_aggr2" /><trip id="r_and_alt_1_8_car_aggr3.2" depart="30937.3" from="lane_entry_B" to="lane_exit_A" type="car_aggr3" /><trip id="r_and_alt_1_8_car_aggr1.0" depart="31147.21" from="lane_entry_B" to="lane_exit_A" type="car_aggr1" /><trip id="r_alt_and_1_8_car_aggr4.1" depart="31162.03" from="lane_entry_A" to="lane_exit_B" type="car_aggr4" /><trip id="r_and_alt_1_8_car_aggr3.3" depart="31293.99" from="lane_entry_B" to="lane_exit_A" type="car_aggr3" /><trip id="r_and_alt_1_8_car_aggr3.4" depart="31435.01" from="lane_entry_B" to="lane_exit_A" type="car_aggr3" /><trip id="r_and_alt_1_8_car_aggr3.5" depart="31607.41" from="lane_entry_B" to="lane_exit_A" type="car_aggr3" /><trip id="r_alt_and_1_8_car_aggr2.1" depart="31689.89" from="lane_entry_A" to="lane_exit_B" type="car_aggr2" /><trip id="r_alt_and_1_8_car_aggr4.2" depart="31693.53" from="lane_entry_A" to="lane_exit_B" type="car_aggr4" /><trip id="r_and_alt_1_8_car_aggr4.1" depart="31713.09" from="lane_entry_B" to="lane_exit_A" type="car_aggr4" /><trip id="r_luz_oba_KS_____8_small_truck.0" depart="31836.04" from="lane_entry_A" to="lane_exit_B" type="small_truck" /><trip id="r_alt_and_1_8_car_aggr5.0" depart="31839.26" from="lane_entry_A" to="lane_exit_B" type="car_aggr5" /><trip id="r_and_alt_1_8_car_aggr4.2" depart="31918.37" from="lane_entry_B" to="lane_exit_A" type="car_aggr4" /><trip id="r_and_alt_1_8_car_aggr4.3" depart="31976.0" from="lane_entry_B" to="lane_exit_A" type="car_aggr4" /><trip id="r_and_alt_1_8_car_aggr2.2" depart="32066.74" from="lane_entry_B" to="lane_exit_A" type="car_aggr2" /><trip id="r_luz_oba_KS_____8_car_aggr3.0" depart="32106.01" from="lane_entry_A" to="lane_exit_B" type="car_aggr3" /><trip id="r_alt_and_1_8_small_truck.0" depart="32136.37" from="lane_entry_A" to="lane_exit_B" type="small_truck" /><trip id="r_alt_and_1_8_car_aggr1.0" depart="32388.14" from="lane_entry_A" to="lane_exit_B" type="car_aggr1" /><trip id="r_and_alt_1_8_big_truck.0" depart="32455.1" from="lane_entry_B" to="lane_exit_A" type="big_truck" /><trip id="r_and_alt_1_8_car_aggr4.4" depart="32513.03" from="lane_entry_B" to="lane_exit_A" type="car_aggr4" /><trip id="r_alt_and_1_8_car_aggr2.2" depart="32687.91" from="lane_entry_A" to="lane_exit_B" type="car_aggr2" /><trip id="r_luz_oba_KS_____8_car_aggr2.0" depart="32722.35" from="lane_entry_A" to="lane_exit_B" type="car_aggr2" /><trip id="r_and_alt_1_8_car_aggr4.5" depart="32748.89" from="lane_entry_B" to="lane_exit_A" type="car_aggr4" /><trip id="r_alt_and_1_8_car_aggr3.1" depart="32879.65" from="lane_entry_A" to="lane_exit_B" type="car_aggr3" /><trip id="r_and_alt_1_8_car_aggr4.6" depart="32958.24" from="lane_entry_B" to="lane_exit_A" type="car_aggr4" /><trip id="r_and_alt_1_8_car_aggr5.0" depart="32992.83" from="lane_entry_B" to="lane_exit_A" type="car_aggr5" /><trip id="r_alt_and_1_8_car_aggr2.3" depart="33105.45" from="lane_entry_A" to="lane_exit_B" type="car_aggr2" /><trip id="r_and_alt_1_9_car_aggr3.0" depart="33280.05" from="lane_entry_B" to="lane_exit_A" type="car_aggr3" /><trip id="r_alt_and_1_8_car_aggr3.2" depart="33314.68" from="lane_entry_A" to="lane_exit_B" type="car_aggr3" /><trip id="r_and_alt_1_9_car_aggr2.0" depart="33330.65" from="lane_entry_B" to="lane_exit_A" type="car_aggr2" /><trip id="r_alt_and_1_8_car_aggr3.3" depart="33395.72" from="lane_entry_A" to="lane_exit_B" type="car_aggr3" /><trip id="r_and_alt_1_9_car_aggr1.0" depart="33515.43" from="lane_entry_B" to="lane_exit_A" type="car_aggr1" /><trip id="r_and_alt_1_9_car_aggr2.1" depart="33612.74" from="lane_entry_B" to="lane_exit_A" type="car_aggr2" /><trip id="r_and_alt_1_9_car_aggr3.1" depart="33669.13" from="lane_entry_B" to="lane_exit_A" type="car_aggr3" /><trip id="r_and_alt_1_9_car_aggr4.0" depart="33673.02" from="lane_entry_B" to="lane_exit_A" type="car_aggr4" /><trip id="r_alt_and_1_8_big_truck.0" depart="33752.92" from="lane_entry_A" to="lane_exit_B" type="big_truck" /><trip id="r_and_alt_1_9_car_aggr3.2" depart="33919.01" from="lane_entry_B" to="lane_exit_A" type="car_aggr3" /><trip id="r_alt_and_1_8_car_aggr5.1" depart="33989.75" from="lane_entry_A" to="lane_exit_B" type="car_aggr5" /><trip id="r_alt_and_1_8_car_aggr2.4" depart="33996.01" from="lane_entry_A" to="lane_exit_B" type="car_aggr2" /><trip id="r_luz_oba_KS_____8_car_aggr4.0" depart="33999.83" from="lane_entry_A" to="lane_exit_B" type="car_aggr4" /><trip id="r_alt_and_1_8_car_aggr4.3" depart="34003.52" from="lane_entry_A" to="lane_exit_B" type="car_aggr4" /><trip id="r_luz_oba_KS_____8_car_aggr4.1" depart="34007.41" from="lane_entry_A" to="lane_exit_B" type="car_aggr4" /><trip id="r_alt_and_1_8_car_aggr3.4" depart="34011.83" from="lane_entry_A" to="lane_exit_B" type="car_aggr3" /><trip id="r_luz_oba_KS_____8_car_aggr3.1" depart="34016.07" from="lane_entry_A" to="lane_exit_B" type="car_aggr3" /><trip id="r_alt_and_1_9_car_aggr3.0" depart="34020.31" from="lane_entry_A" to="lane_exit_B" type="car_aggr3" /><trip id="r_and_alt_1_9_car_aggr5.0" depart="34060.41" from="lane_entry_B" to="lane_exit_A" type="car_aggr5" /><trip id="r_and_alt_1_9_car_aggr3.3" depart="34102.01" from="lane_entry_B" to="lane_exit_A" type="car_aggr3" /><trip id="r_and_alt_1_9_car_aggr3.4" depart="34161.03" from="lane_entry_B" to="lane_exit_A" type="car_aggr3" /><trip id="r_and_alt_1_9_big_truck.0" depart="34499.49" from="lane_entry_B" to="lane_exit_A" type="big_truck" /><trip id="r_luz_oba_KS_____8_car_aggr2.1" depart="34569.27" from="lane_entry_A" to="lane_exit_B" type="car_aggr2" /><trip id="r_luz_oba_KS_____8_car_aggr3.2" depart="34573.55" from="lane_entry_A" to="lane_exit_B" type="car_aggr3" /><trip id="r_alt_and_1_9_car_aggr2.0" depart="34579.21" from="lane_entry_A" to="lane_exit_B" type="car_aggr2" /><trip id="r_alt_and_1_9_motorbike.0" depart="34582.97" from="lane_entry_A" to="lane_exit_B" type="motorbike" /><trip id="r_luz_oba_KS_____8_car_aggr3.3" depart="34587.46" from="lane_entry_A" to="lane_exit_B" type="car_aggr3" /><trip id="r_luz_oba_KS_____8_car_aggr3.4" depart="34591.66" from="lane_entry_A" to="lane_exit_B" type="car_aggr3" /><trip id="r_alt_and_1_9_car_aggr5.0" depart="34594.85" from="lane_entry_A" to="lane_exit_B" type="car_aggr5" /><trip id="r_luz_oba_KS_____8_car_aggr2.2" depart="34601.11" from="lane_entry_A" to="lane_exit_B" type="car_aggr2" /><trip id="r_luz_oba_KS_____8_car_aggr5.0" depart="34641.37" from="lane_entry_A" to="lane_exit_B" type="car_aggr5" /><trip id="r_alt_and_1_9_car_aggr1.0" depart="34758.59" from="lane_entry_A" to="lane_exit_B" type="car_aggr1" /><trip id="r_alt_and_1_9_car_aggr2.1" depart="34763.85" from="lane_entry_A" to="lane_exit_B" type="car_aggr2" /><trip id="r_alt_and_1_9_small_truck.0" depart="34767.3" from="lane_entry_A" to="lane_exit_B" type="small_truck" /><trip id="r_alt_and_1_9_car_aggr2.2" depart="34844.94" from="lane_entry_A" to="lane_exit_B" type="car_aggr2" /><trip id="r_luz_oba_KS_____8_car_aggr3.5" depart="34849.07" from="lane_entry_A" to="lane_exit_B" type="car_aggr3" /><trip id="r_alt_and_1_9_car_aggr4.0" depart="34852.77" from="lane_entry_A" to="lane_exit_B" type="car_aggr4" /><trip id="r_alt_and_1_9_car_aggr4.1" depart="34856.4" from="lane_entry_A" to="lane_exit_B" type="car_aggr4" /><trip id="r_and_alt_1_9_car_aggr1.1" depart="34870.86" from="lane_entry_B" to="lane_exit_A" type="car_aggr1" /><trip id="r_and_alt_1_9_car_aggr5.1" depart="34874.24" from="lane_entry_B" to="lane_exit_A" type="car_aggr5" /><trip id="r_and_alt_1_9_car_aggr2.2" depart="34880.15" from="lane_entry_B" to="lane_exit_A" type="car_aggr2" /><trip id="r_and_alt_1_9_car_aggr3.5" depart="34884.32" from="lane_entry_B" to="lane_exit_A" type="car_aggr3" /><trip id="r_alt_and_1_9_car_aggr3.1" depart="35064.85" from="lane_entry_A" to="lane_exit_B" type="car_aggr3" /><trip id="r_luz_oba_KS_____8_motorbike.0" depart="35068.46" from="lane_entry_A" to="lane_exit_B" type="motorbike" /><trip id="r_and_alt_1_9_car_aggr3.6" depart="35183.8" from="lane_entry_B" to="lane_exit_A" type="car_aggr3" /><trip id="r_luz_oba_KS_____9_car_aggr3.0" depart="35217.71" from="lane_entry_A" to="lane_exit_B" type="car_aggr3" /><trip id="r_and_alt_1_9_car_aggr2.3" depart="35322.18" from="lane_entry_B" to="lane_exit_A" type="car_aggr2" /><trip id="r_alt_and_1_9_car_aggr3.2" depart="35499.62" from="lane_entry_A" to="lane_exit_B" type="car_aggr3" /><trip id="r_and_alt_1_9_car_aggr2.4" depart="35668.91" from="lane_entry_B" to="lane_exit_A" type="car_aggr2" /><trip id="r_alt_and_1_9_car_aggr1.1" depart="35775.23" from="lane_entry_A" to="lane_exit_B" type="car_aggr1" /><trip id="r_alt_and_1_9_car_aggr2.3" depart="35780.5" from="lane_entry_A" to="lane_exit_B" type="car_aggr2" /><trip id="r_luz_oba_KS_____9_car_aggr3.1" depart="35872.37" from="lane_entry_A" to="lane_exit_B" type="car_aggr3" /><trip id="r_and_alt_1_9_small_truck.0" depart="35907.6" from="lane_entry_B" to="lane_exit_A" type="small_truck" /><trip id="r_alt_and_1_9_car_aggr1.2" depart="35949.43" from="lane_entry_A" to="lane_exit_B" type="car_aggr1" /><trip id="r_alt_and_1_9_motorbike.1" depart="35953.05" from="lane_entry_A" to="lane_exit_B" type="motorbike" /><trip id="r_and_alt_1_9_car_aggr2.5" depart="36011.75" from="lane_entry_B" to="lane_exit_A" type="car_aggr2" /><trip id="r_luz_oba_KS_____9_small_truck.0" depart="36060.87" from="lane_entry_A" to="lane_exit_B" type="small_truck" /><trip id="r_alt_and_1_9_car_aggr3.3" depart="36065.07" from="lane_entry_A" to="lane_exit_B" type="car_aggr3" /><trip id="r_alt_and_1_9_car_aggr3.4" depart="36069.2" from="lane_entry_A" to="lane_exit_B" type="car_aggr3" /><trip id="r_and_alt_1_9_small_truck.1" depart="36113.95" from="lane_entry_B" to="lane_exit_A" type="small_truck" /><trip id="r_alt_and_1_9_car_aggr2.4" depart="36116.74" from="lane_entry_A" to="lane_exit_B" type="car_aggr2" /><trip id="r_alt_and_1_9_car_aggr1.3" depart="36275.91" from="lane_entry_A" to="lane_exit_B" type="car_aggr1" /><trip id="r_alt_and_1_9_small_truck.1" depart="36279.35" from="lane_entry_A" to="lane_exit_B" type="small_truck" /><trip id="r_alt_and_1_9_car_aggr2.5" depart="36394.26" from="lane_entry_A" to="lane_exit_B" type="car_aggr2" /><trip id="r_and_alt_1_9_car_aggr2.6" depart="36497.98" from="lane_entry_B" to="lane_exit_A" type="car_aggr2" /><trip id="r_and_alt_1_9_car_aggr3.7" depart="36502.49" from="lane_entry_B" to="lane_exit_A" type="car_aggr3" /><trip id="r_and_alt_1_9_car_aggr3.8" depart="36506.82" from="lane_entry_B" to="lane_exit_A" type="car_aggr3" /><trip id="r_luz_oba_KS_____9_big_truck.0" depart="36589.44" from="lane_entry_A" to="lane_exit_B" type="big_truck" /><trip id="r_alt_and_1_9_car_aggr2.6" depart="36595.06" from="lane_entry_A" to="lane_exit_B" type="car_aggr2" /><trip id="r_luz_oba_KS_____9_small_truck.1" depart="36598.53" from="lane_entry_A" to="lane_exit_B" type="small_truck" /><trip id="r_alt_and_1_9_car_aggr5.1" depart="36601.69" from="lane_entry_A" to="lane_exit_B" type="car_aggr5" /><trip id="r_luz_oba_KS_____9_car_aggr3.2" depart="36606.55" from="lane_entry_A" to="lane_exit_B" type="car_aggr3" /><trip id="r_luz_oba_KS_____9_car_aggr3.3" depart="36610.75" from="lane_entry_A" to="lane_exit_B" type="car_aggr3" /><trip id="r_and_alt_1_9_big_truck.1" depart="36785.66" from="lane_entry_B" to="lane_exit_A" type="big_truck" /><trip id="r_and_alt_1_9_car_aggr2.7" depart="36791.51" from="lane_entry_B" to="lane_exit_A" type="car_aggr2" /><trip id="r_and_alt_1_9_small_truck.2" depart="36795.03" from="lane_entry_B" to="lane_exit_A" type="small_truck" /><trip id="r_and_alt_1_9_motorbike.0" depart="36849.93" from="lane_entry_B" to="lane_exit_A" type="motorbike" /><trip id="r_alt_and_1_9_car_aggr5.2" depart="36918.74" from="lane_entry_A" to="lane_exit_B" type="car_aggr5" /><trip id="r_alt_and_1_9_car_aggr3.5" depart="36950.78" from="lane_entry_A" to="lane_exit_B" type="car_aggr3" /><trip id="r_and_alt_1_10_car_aggr5.0" depart="36990.41" from="lane_entry_B" to="lane_exit_A" type="car_aggr5" /><trip id="r_luz_oba_KS_____9_car_aggr4.0" depart="37100.76" from="lane_entry_A" to="lane_exit_B" type="car_aggr4" /><trip id="r_and_alt_1_10_small_truck.0" depart="37224.62" from="lane_entry_B" to="lane_exit_A" type="small_truck" /><trip id="r_and_alt_1_10_car_aggr3.0" depart="37229.01" from="lane_entry_B" to="lane_exit_A" type="car_aggr3" /><trip id="r_alt_and_1_9_car_aggr3.6" depart="37310.76" from="lane_entry_A" to="lane_exit_B" type="car_aggr3" /><trip id="r_luz_oba_KS_____9_car_aggr3.4" depart="37416.14" from="lane_entry_A" to="lane_exit_B" type="car_aggr3" /><trip id="r_luz_oba_KS_____9_car_aggr2.0" depart="37449.69" from="lane_entry_A" to="lane_exit_B" type="car_aggr2" /><trip id="r_alt_and_1_10_car_aggr3.0" depart="37453.78" from="lane_entry_A" to="lane_exit_B" type="car_aggr3" /><trip id="r_alt_and_1_10_small_truck.0" depart="37459.21" from="lane_entry_A" to="lane_exit_B" type="small_truck" /><trip id="r_alt_and_1_10_car_aggr1.0" depart="37603.93" from="lane_entry_A" to="lane_exit_B" type="car_aggr1" /><trip id="r_alt_and_1_10_car_aggr3.1" depart="37637.27" from="lane_entry_A" to="lane_exit_B" type="car_aggr3" /><trip id="r_and_alt_1_10_car_aggr4.0" depart="37664.01" from="lane_entry_B" to="lane_exit_A" type="car_aggr4" /><trip id="r_alt_and_1_10_car_aggr3.2" depart="37683.49" from="lane_entry_A" to="lane_exit_B" type="car_aggr3" /><trip id="r_and_alt_1_10_car_aggr2.0" depart="37834.05" from="lane_entry_B" to="lane_exit_A" type="car_aggr2" /><trip id="r_and_alt_1_10_car_aggr5.1" depart="37837.34" from="lane_entry_B" to="lane_exit_A" type="car_aggr5" /><trip id="r_and_alt_1_10_car_aggr4.1" depart="37841.34" from="lane_entry_B" to="lane_exit_A" type="car_aggr4" /><trip id="r_and_alt_1_10_car_aggr3.1" depart="37908.12" from="lane_entry_B" to="lane_exit_A" type="car_aggr3" /><trip id="r_and_alt_1_10_car_aggr5.2" depart="37941.23" from="lane_entry_B" to="lane_exit_A" type="car_aggr5" /><trip id="r_luz_oba_KS_____9_car_aggr2.1" depart="37961.37" from="lane_entry_A" to="lane_exit_B" type="car_aggr2" /><trip id="r_alt_and_1_10_car_aggr4.0" depart="37965.11" from="lane_entry_A" to="lane_exit_B" type="car_aggr4" /><trip id="r_alt_and_1_10_car_aggr3.3" depart="37969.58" from="lane_entry_A" to="lane_exit_B" type="car_aggr3" /><trip id="r_and_alt_1_10_car_aggr3.2" depart="38054.46" from="lane_entry_B" to="lane_exit_A" type="car_aggr3" /><trip id="r_alt_and_1_10_big_truck.0" depart="38199.34" from="lane_entry_A" to="lane_exit_B" type="big_truck" /><trip id="r_alt_and_1_10_car_aggr3.4" depart="38203.93" from="lane_entry_A" to="lane_exit_B" type="car_aggr3" /><trip id="r_alt_and_1_10_car_aggr1.1" depart="38210.71" from="lane_entry_A" to="lane_exit_B" type="car_aggr1" /><trip id="r_luz_oba_KS_____9_car_aggr2.2" depart="38215.95" from="lane_entry_A" to="lane_exit_B" type="car_aggr2" /><trip id="r_alt_and_1_10_car_aggr2.0" depart="38255.44" from="lane_entry_A" to="lane_exit_B" type="car_aggr2" /><trip id="r_alt_and_1_10_car_aggr5.0" depart="38258.64" from="lane_entry_A" to="lane_exit_B" type="car_aggr5" /><trip id="r_alt_and_1_10_car_aggr3.5" depart="38263.36" from="lane_entry_A" to="lane_exit_B" type="car_aggr3" /><trip id="r_alt_and_1_10_car_aggr2.1" depart="38268.93" from="lane_entry_A" to="lane_exit_B" type="car_aggr2" /><trip id="r_alt_and_1_10_small_truck.1" depart="38272.46" from="lane_entry_A" to="lane_exit_B" type="small_truck" /><trip id="r_alt_and_1_10_car_aggr4.1" depart="38276.32" from="lane_entry_A" to="lane_exit_B" type="car_aggr4" /><trip id="r_alt_and_1_10_motorbike.0" depart="38280.01" from="lane_entry_A" to="lane_exit_B" type="motorbike" /><trip id="r_alt_and_1_10_car_aggr3.6" depart="38362.75" from="lane_entry_A" to="lane_exit_B" type="car_aggr3" /><trip id="r_and_alt_1_10_car_aggr3.3" depart="38389.2" from="lane_entry_B" to="lane_exit_A" type="car_aggr3" /><trip id="r_and_alt_1_10_car_aggr4.2" depart="38434.81" from="lane_entry_B" to="lane_exit_A" type="car_aggr4" /><trip id="r_alt_and_1_10_car_aggr2.2" depart="38458.95" from="lane_entry_A" to="lane_exit_B" type="car_aggr2" /><trip id="r_and_alt_1_10_car_aggr2.1" depart="38594.5" from="lane_entry_B" to="lane_exit_A" type="car_aggr2" /><trip id="r_and_alt_1_10_car_aggr1.0" depart="38639.37" from="lane_entry_B" to="lane_exit_A" type="car_aggr1" /><trip id="r_alt_and_1_10_car_aggr3.7" depart="38804.82" from="lane_entry_A" to="lane_exit_B" type="car_aggr3" /><trip id="r_alt_and_1_10_car_aggr3.8" depart="38809.11" from="lane_entry_A" to="lane_exit_B" type="car_aggr3" /><trip id="r_alt_and_1_10_big_truck.1" depart="38814.15" from="lane_entry_A" to="lane_exit_B" type="big_truck" /><trip id="r_alt_and_1_10_car_aggr3.9" depart="38874.2" from="lane_entry_A" to="lane_exit_B" type="car_aggr3" /><trip id="r_alt_and_1_10_car_aggr2.3" depart="38879.9" from="lane_entry_A" to="lane_exit_B" type="car_aggr2" /><trip id="r_luz_oba_KS_____9_car_aggr2.3" depart="38885.08" from="lane_entry_A" to="lane_exit_B" type="car_aggr2" /><trip id="r_and_alt_1_10_car_aggr2.2" depart="38925.24" from="lane_entry_B" to="lane_exit_A" type="car_aggr2" /><trip id="r_and_alt_1_10_car_aggr3.4" depart="38929.59" from="lane_entry_B" to="lane_exit_A" type="car_aggr3" /><trip id="r_luz_oba_KS_____9_big_truck.1" depart="39030.47" from="lane_entry_A" to="lane_exit_B" type="big_truck" /><trip id="r_luz_oba_KS_____9_car_aggr3.5" depart="39035.2" from="lane_entry_A" to="lane_exit_B" type="car_aggr3" /><trip id="r_alt_and_1_10_small_truck.2" depart="39039.15" from="lane_entry_A" to="lane_exit_B" type="small_truck" /><trip id="r_and_alt_1_10_car_aggr2.3" depart="39039.85" from="lane_entry_B" to="lane_exit_A" type="car_aggr2" /><trip id="r_alt_and_1_10_car_aggr2.4" depart="39044.46" from="lane_entry_A" to="lane_exit_B" type="car_aggr2" /><trip id="r_luz_oba_KS_____9_car_aggr1.0" depart="39050.88" from="lane_entry_A" to="lane_exit_B" type="car_aggr1" /><trip id="r_alt_and_1_10_small_truck.3" depart="39054.31" from="lane_entry_A" to="lane_exit_B" type="small_truck" /><trip id="r_alt_and_1_10_car_aggr5.1" depart="39057.64" from="lane_entry_A" to="lane_exit_B" type="car_aggr5" /><trip id="r_alt_and_1_10_car_aggr4.2" depart="39061.56" from="lane_entry_A" to="lane_exit_B" type="car_aggr4" /><trip id="r_alt_and_1_10_car_aggr1.2" depart="39068.68" from="lane_entry_A" to="lane_exit_B" type="car_aggr1" /><trip id="r_luz_oba_KS_____10_car_aggr2.0" depart="39073.99" from="lane_entry_A" to="lane_exit_B" type="car_aggr2" /><trip id="r_luz_oba_KS_____10_car_aggr3.0" depart="39078.22" from="lane_entry_A" to="lane_exit_B" type="car_aggr3" /><trip id="r_alt_and_1_10_car_aggr3.10" depart="39082.54" from="lane_entry_A" to="lane_exit_B" type="car_aggr3" /><trip id="r_alt_and_1_10_car_aggr3.11" depart="39086.77" from="lane_entry_A" to="lane_exit_B" type="car_aggr3" /><trip id="r_alt_and_1_10_car_aggr5.2" depart="39089.97" from="lane_entry_A" to="lane_exit_B" type="car_aggr5" /><trip id="r_alt_and_1_10_car_aggr3.12" depart="39094.92" from="lane_entry_A" to="lane_exit_B" type="car_aggr3" /><trip id="r_luz_oba_KS_____10_car_aggr4.0" depart="39098.59" from="lane_entry_A" to="lane_exit_B" type="car_aggr4" /><trip id="r_luz_oba_KS_____10_car_aggr3.2" depart="39103.07" from="lane_entry_A" to="lane_exit_B" type="car_aggr3" /><trip id="r_luz_oba_KS_____10_car_aggr3.3" depart="39184.3" from="lane_entry_A" to="lane_exit_B" type="car_aggr3" /><trip id="r_alt_and_1_10_motorbike.1" depart="39250.61" from="lane_entry_A" to="lane_exit_B" type="motorbike" /><trip id="r_alt_and_1_10_car_aggr3.13" depart="39255.08" from="lane_entry_A" to="lane_exit_B" type="car_aggr3" /><trip id="r_alt_and_1_10_car_aggr3.14" depart="39361.04" from="lane_entry_A" to="lane_exit_B" type="car_aggr3" /><trip id="r_and_alt_1_10_car_aggr3.5" depart="39368.63" from="lane_entry_B" to="lane_exit_A" type="car_aggr3" /><trip id="r_and_alt_1_10_car_aggr1.1" depart="39375.11" from="lane_entry_B" to="lane_exit_A" type="car_aggr1" /><trip id="r_and_alt_1_10_car_aggr3.6" depart="39499.84" from="lane_entry_B" to="lane_exit_A" type="car_aggr3" /><trip id="r_and_alt_1_10_car_aggr3.7" depart="39565.83" from="lane_entry_B" to="lane_exit_A" type="car_aggr3" /><trip id="r_luz_oba_KS_____10_car_aggr3.1" depart="39614.73" from="lane_entry_A" 