<?xml version='1.0' encoding='utf-8'?>
<trips><trip id="r_ers_alt_1_1_car_aggr1.0" depart="4548.06" from="lane_entry_D" to="lane_exit_B" type="car_aggr1" /><trip id="r_ers_alt_1_1_car_aggr4.0" depart="4562.29" from="lane_entry_D" to="lane_exit_B" type="car_aggr4" /><trip id="r_alt_and_1_1_car_aggr4.0" depart="5018.51" from="lane_entry_B" to="lane_exit_D" type="car_aggr4" /><trip id="r_luz_tun_aAl_eEr_1_car_aggr2.0" depart="5170.72" from="lane_entry_A" to="lane_exit_D" type="car_aggr2" /><trip id="r_luz_tun_aAl_eEr_1_car_aggr3.0" depart="5175.91" from="lane_entry_A" to="lane_exit_D" type="car_aggr3" /><trip id="r_ers_alt_1_1_car_aggr4.1" depart="5354.69" from="lane_entry_D" to="lane_exit_B" type="car_aggr4" /><trip id="r_alt_and_1_1_car_aggr4.1" depart="5659.8" from="lane_entry_B" to="lane_exit_D" type="car_aggr4" /><trip id="r_luz_tun_aAl_eEr_1_car_aggr4.0" depart="5698.36" from="lane_entry_A" to="lane_exit_D" type="car_aggr4" /><trip id="r_ers_alt_1_1_motorbike.0" depart="5895.01" from="lane_entry_D" to="lane_exit_B" type="motorbike" /><trip id="r_ers_alt_1_1_car_aggr4.2" depart="6093.26" from="lane_entry_D" to="lane_exit_B" type="car_aggr4" /><trip id="r_luz_tun_aAl_eEr_1_car_aggr3.1" depart="6121.6" from="lane_entry_A" to="lane_exit_D" type="car_aggr3" /><trip id="r_ers_alt_1_1_car_aggr5.0" depart="6375.95" from="lane_entry_D" to="lane_exit_B" type="car_aggr5" /><trip id="r_ers_alt_1_1_car_aggr2.0" depart="6430.93" from="lane_entry_D" to="lane_exit_B" type="car_aggr2" /><trip id="r_ers_alt_1_1_car_aggr1.1" depart="6525.18" from="lane_entry_D" to="lane_exit_B" type="car_aggr1" /><trip id="r_tun_axs_KS_____1_small_truck.0" depart="7284.42" from="lane_entry_D" to="lane_exit_B" type="small_truck" /><trip id="r_alt_and_1_1_motorbike.0" depart="7335.24" from="lane_entry_B" to="lane_exit_D" type="motorbike" /><trip id="r_tun_axs_KS_____1_motorbike.0" depart="7899.62" from="lane_entry_D" to="lane_exit_B" type="motorbike" /><trip id="r_tun_axs_KS_____1_car_aggr2.0" depart="7905.5" from="lane_entry_D" to="lane_exit_B" type="car_aggr2" /><trip id="r_luz_tun_aAl_eEr_1_car_aggr5.0" depart="8068.11" from="lane_entry_A" to="lane_exit_D" type="car_aggr5" /><trip id="r_tun_axs_KS_____1_car_aggr2.1" depart="8322.38" from="lane_entry_D" to="lane_exit_B" type="car_aggr2" /><trip id="r_ers_alt_1_2_car_aggr5.0" depart="8392.13" from="lane_entry_D" to="lane_exit_B" type="car_aggr5" /><trip id="r_and_alt_1_1_car_aggr3.0" depart="8620.96" from="lane_entry_D" to="lane_exit_B" type="car_aggr3" /><trip id="r_tun_axs_KS_____1_car_aggr4.0" depart="8924.96" from="lane_entry_D" to="lane_exit_B" type="car_aggr4" /><trip id="r_ers_alt_1_2_car_aggr4.0" depart="9088.6" from="lane_entry_D" to="lane_exit_B" type="car_aggr4" /><trip id="r_ers_alt_1_2_car_aggr4.1" depart="9507.24" from="lane_entry_D" to="lane_exit_B" type="car_aggr4" /><trip id="r_tun_axs_KS_____1_car_aggr5.0" depart="9697.45" from="lane_entry_D" to="lane_exit_B" type="car_aggr5" /><trip id="r_luz_tun_aAl_eEr_2_car_aggr3.0" depart="9892.41" from="lane_entry_A" to="lane_exit_D" type="car_aggr3" /><trip id="r_luz_tun_aAl_eEr_2_car_aggr2.0" depart="10172.2" from="lane_entry_A" to="lane_exit_D" type="car_aggr2" /><trip id="r_alt_ers_1_2_motorbike.0" depart="10575.47" from="lane_entry_A" to="lane_exit_D" type="motorbike" /><trip id="r_ers_alt_1_3_car_aggr3.0" depart="11249.22" from="lane_entry_D" to="lane_exit_B" type="car_aggr3" /><trip id="r_luz_tun_aAl_eEr_2_motorbike.0" depart="11469.89" from="lane_entry_A" to="lane_exit_D" type="motorbike" /><trip id="r_ers_alt_1_3_small_truck.0" depart="11505.75" from="lane_entry_D" to="lane_exit_B" type="small_truck" /><trip id="r_ers_alt_1_3_car_aggr4.0" depart="11629.97" from="lane_entry_D" to="lane_exit_B" type="car_aggr4" /><trip id="r_luz_tun_aAl_eEr_2_car_aggr3.1" depart="11643.44" from="lane_entry_A" to="lane_exit_D" type="car_aggr3" /><trip id="r_luz_tun_aAl_eEr_2_car_aggr5.0" depart="11849.32" from="lane_entry_A" to="lane_exit_D" type="car_aggr5" /><trip id="r_ers_alt_1_3_car_aggr3.1" depart="11866.42" from="lane_entry_D" to="lane_exit_B" type="car_aggr3" /><trip id="r_ers_alt_1_3_car_aggr3.2" depart="12896.92" from="lane_entry_D" to="lane_exit_B" type="car_aggr3" /><trip id="r_luz_tun_aAl_eEr_3_small_truck.0" depart="12904.14" from="lane_entry_A" to="lane_exit_D" type="small_truck" /><trip id="r_luz_tun_aAl_eEr_3_motorbike.0" depart="12947.88" from="lane_entry_A" to="lane_exit_D" type="motorbike" /><trip id="r_ers_alt_1_3_car_aggr3.3" depart="13170.29" from="lane_entry_D" to="lane_exit_B" type="car_aggr3" /><trip id="r_luz_tun_aAl_eEr_3_car_aggr4.0" depart="13354.57" from="lane_entry_A" to="lane_exit_D" type="car_aggr4" /><trip id="r_ers_alt_1_3_car_aggr3.4" depart="13552.33" from="lane_entry_D" to="lane_exit_B" type="car_aggr3" /><trip id="r_luz_tun_aAl_eEr_3_motorbike.1" depart="13702.23" from="lane_entry_A" to="lane_exit_D" type="motorbike" /><trip id="r_alt_and_1_3_car_aggr3.0" depart="13813.55" from="lane_entry_B" to="lane_exit_D" type="car_aggr3" /><trip id="r_ers_alt_1_3_small_truck.1" depart="14010.56" from="lane_entry_D" to="lane_exit_B" type="small_truck" /><trip id="r_ers_alt_1_3_car_aggr3.5" depart="14076.49" from="lane_entry_D" to="lane_exit_B" type="car_aggr3" /><trip id="r_luz_tun_aAl_eEr_3_car_aggr2.0" depart="14125.94" from="lane_entry_A" to="lane_exit_D" type="car_aggr2" /><trip id="r_luz_tun_aAl_eEr_3_car_aggr5.0" depart="14614.17" from="lane_entry_A" to="lane_exit_D" type="car_aggr5" /><trip id="r_alt_round6_4_car_aggr3.0" depart="14620.82" from="lane_entry_A" to="lane_exit_B" type="car_aggr3" /><trip id="r_ers_alt_1_3_big_truck.0" depart="14653.37" from="lane_entry_D" to="lane_exit_B" type="big_truck" /><trip id="r_luz_tun_aAl_eEr_3_motorbike.2" depart="15121.2" from="lane_entry_A" to="lane_exit_D" type="motorbike" /><trip id="r_luz_tun_aAl_eEr_4_car_aggr2.0" depart="15535.22" from="lane_entry_A" to="lane_exit_D" type="car_aggr2" /><trip id="r_alt_round3_4_car_aggr2.0" depart="16375.31" from="lane_entry_B" to="lane_exit_B" type="car_aggr2" /><trip id="r_alt_round_5_4_small_truck.0" depart="16598.8" from="lane_entry_B" to="lane_exit_A" type="small_truck" /><trip id="r_alt_round6_4_big_truck.0" depart="16601.6" from="lane_entry_A" to="lane_exit_B" type="big_truck" /><trip id="r_alt_round4_4_car_aggr2.0" depart="16717.22" from="lane_entry_B" to="lane_exit_B" type="car_aggr2" /><trip id="r_alt_round3_4_car_aggr2.1" depart="17099.04" from="lane_entry_B" to="lane_exit_B" type="car_aggr2" /><trip id="r_alt_round_5_4_car_aggr1.0" depart="17807.37" from="lane_entry_B" to="lane_exit_A" type="car_aggr1" /><trip id="r_and_alt_1_4_small_truck.0" depart="17808.49" from="lane_entry_D" to="lane_exit_B" type="small_truck" /><trip id="r_ers_alt_1_4_car_aggr3.0" depart="17812.78" from="lane_entry_D" to="lane_exit_B" type="car_aggr3" /><trip id="r_alt_round6_4_car_aggr5.0" depart="17945.37" from="lane_entry_A" to="lane_exit_B" type="car_aggr5" /><trip id="r_alt_round3_4_small_truck.0" depart="18130.95" from="lane_entry_B" to="lane_exit_B" type="small_truck" /><trip id="r_alt_round_5_4_car_aggr3.0" depart="18234.54" from="lane_entry_B" to="lane_exit_A" type="car_aggr3" /><trip id="r_ers_alt_1_5_car_aggr3.0" depart="18323.79" from="lane_entry_D" to="lane_exit_B" type="car_aggr3" /><trip id="r_ers_alt_1_5_car_aggr3.1" depart="18454.47" from="lane_entry_D" to="lane_exit_B" type="car_aggr3" /><trip id="r_alt_round3_5_car_aggr2.0" depart="18465.69" from="lane_entry_B" to="lane_exit_B" type="car_aggr2" /><trip id="r_ers_alt_1_5_car_aggr4.0" depart="18584.39" from="lane_entry_D" to="lane_exit_B" type="car_aggr4" /><trip id="r_ers_alt_1_5_car_aggr3.2" depart="18659.33" from="lane_entry_D" to="lane_exit_B" type="car_aggr3" /><trip id="r_ers_alt_1_5_car_aggr4.1" depart="18823.65" from="lane_entry_D" to="lane_exit_B" type="car_aggr4" /><trip id="r_alt_round_5_5_big_truck.0" depart="18842.77" from="lane_entry_B" to="lane_exit_A" type="big_truck" /><trip id="r_ers_alt_1_5_car_aggr3.3" depart="19017.95" from="lane_entry_D" to="lane_exit_B" type="car_aggr3" /><trip id="r_ers_alt_1_5_car_aggr2.0" depart="19092.42" from="lane_entry_D" to="lane_exit_B" type="car_aggr2" /><trip id="r_alt_ers_1_5_car_aggr3.0" depart="19121.97" from="lane_entry_A" to="lane_exit_D" type="car_aggr3" /><trip id="r_ers_alt_1_5_car_aggr1.0" depart="19122.44" from="lane_entry_D" to="lane_exit_B" type="car_aggr1" /><trip id="r_ers_alt_1_5_car_aggr1.1" depart="19165.19" from="lane_entry_D" to="lane_exit_B" type="car_aggr1" /><trip id="r_alt_round_5_5_car_aggr5.0" depart="19180.45" from="lane_entry_B" to="lane_exit_A" type="car_aggr5" /><trip id="r_ers_alt_1_5_motorbike.0" depart="19214.09" from="lane_entry_D" to="lane_exit_B" type="motorbike" /><trip id="r_ers_alt_1_5_big_truck.0" depart="19266.11" from="lane_entry_D" to="lane_exit_B" type="big_truck" /><trip id="r_luz_tun_aAl_eEr_5_car_aggr5.0" depart="19284.36" from="lane_entry_A" to="lane_exit_D" type="car_aggr5" /><trip id="r_luz_tun_aAl_eEr_5_car_aggr3.0" depart="19305.06" from="lane_entry_A" to="lane_exit_D" type="car_aggr3" /><trip id="r_alt_round_5_5_car_aggr2.0" depart="19400.79" from="lane_entry_B" to="lane_exit_A" type="car_aggr2" /><trip id="r_ers_alt_1_5_car_aggr3.4" depart="19550.24" from="lane_entry_D" to="lane_exit_B" type="car_aggr3" /><trip id="r_luz_tun_aAl_eEr_5_car_aggr5.1" depart="19653.76" from="lane_entry_A" to="lane_exit_D" type="car_aggr5" /><trip id="r_luz_tun_aAl_eEr_5_car_aggr3.1" depart="19658.52" from="lane_entry_A" to="lane_exit_D" type="car_aggr3" /><trip id="r_luz_tun_aAl_eEr_5_car_aggr3.2" depart="19665.29" from="lane_entry_A" to="lane_exit_D" type="car_aggr3" /><trip id="r_alt_round_5_5_car_aggr4.0" depart="19682.16" from="lane_entry_B" to="lane_exit_A" type="car_aggr4" /><trip id="r_ers_alt_1_5_big_truck.1" depart="19689.85" from="lane_entry_D" to="lane_exit_B" type="big_truck" /><trip id="r_ers_alt_1_5_car_aggr2.1" depart="19855.68" from="lane_entry_D" to="lane_exit_B" type="car_aggr2" /><trip id="r_ers_alt_1_5_car_aggr2.2" depart="19861.01" from="lane_entry_D" to="lane_exit_B" type="car_aggr2" /><trip id="r_ers_alt_1_5_car_aggr3.5" depart="19887.98" from="lane_entry_D" to="lane_exit_B" type="car_aggr3" /><trip id="r_ers_alt_1_5_car_aggr3.6" depart="19917.12" from="lane_entry_D" to="lane_exit_B" type="car_aggr3" /><trip id="r_alt_ers_1_5_car_aggr3.1" depart="20018.0" from="lane_entry_A" to="lane_exit_D" type="car_aggr3" /><trip id="r_luz_tun_aAl_eEr_5_car_aggr3.3" depart="20035.36" from="lane_entry_A" to="lane_exit_D" type="car_aggr3" /><trip id="r_luz_tun_aAl_eEr_5_car_aggr4.0" depart="20049.41" from="lane_entry_A" to="lane_exit_D" type="car_aggr4" /><trip id="r_and_alt_1_4_car_aggr1.0" depart="20053.95" from="lane_entry_D" to="lane_exit_B" type="car_aggr1" /><trip id="r_and_alt_1_4_small_truck.1" depart="20057.45" from="lane_entry_D" to="lane_exit_B" type="small_truck" /><trip id="r_alt_and_1_5_big_truck.0" depart="20061.88" from="lane_entry_B" to="lane_exit_D" type="big_truck" /><trip id="r_ers_alt_1_5_small_truck.0" depart="20143.48" from="lane_entry_D" to="lane_exit_B" type="small_truck" /><trip id="r_ers_alt_1_5_car_aggr3.7" depart="20184.18" from="lane_entry_D" to="lane_exit_B" type="car_aggr3" /><trip id="r_ers_alt_1_5_car_aggr1.2" depart="20261.87" from="lane_entry_D" to="lane_exit_B" type="car_aggr1" /><trip id="r_alt_round3_5_car_aggr2.1" depart="20272.97" from="lane_entry_B" to="lane_exit_B" type="car_aggr2" /><trip id="r_ers_alt_1_5_car_aggr3.8" depart="20297.72" from="lane_entry_D" to="lane_exit_B" type="car_aggr3" /><trip id="r_alt_round4_5_small_truck.0" depart="20402.73" from="lane_entry_B" to="lane_exit_B" type="small_truck" /><trip id="r_luz_tun_aAl_eEr_5_car_aggr3.4" depart="20473.4" from="lane_entry_A" to="lane_exit_D" type="car_aggr3" /><trip id="r_ers_alt_1_5_car_aggr1.3" depart="20569.57" from="lane_entry_D" to="lane_exit_B" type="car_aggr1" /><trip id="r_ers_alt_1_5_small_truck.1" depart="20607.03" from="lane_entry_D" to="lane_exit_B" type="small_truck" /><trip id="r_alt_round3_5_small_truck.0" depart="20634.73" from="lane_entry_B" to="lane_exit_B" type="small_truck" /><trip id="r_alt_round_5_5_car_aggr3.0" depart="20786.19" from="lane_entry_B" to="lane_exit_A" type="car_aggr3" /><trip id="r_alt_round4_5_car_aggr2.0" depart="20972.7" from="lane_entry_B" to="lane_exit_B" type="car_aggr2" /><trip id="r_luz_tun_aAl_eEr_5_car_aggr3.5" depart="21018.23" from="lane_entry_A" to="lane_exit_D" type="car_aggr3" /><trip id="r_alt_and_1_5_car_aggr2.0" depart="21022.31" from="lane_entry_B" to="lane_exit_D" type="car_aggr2" /><trip id="r_ers_alt_1_5_car_aggr2.3" depart="21038.38" from="lane_entry_D" to="lane_exit_B" type="car_aggr2" /><trip id="r_alt_round_5_5_car_aggr3.1" depart="21107.75" from="lane_entry_B" to="lane_exit_A" type="car_aggr3" /><trip id="r_ers_alt_1_5_big_truck.2" depart="21111.34" from="lane_entry_D" to="lane_exit_B" type="big_truck" /><trip id="r_ers_alt_1_5_car_aggr2.4" depart="21129.78" from="lane_entry_D" to="lane_exit_B" type="car_aggr2" /><trip id="r_alt_round_5_5_car_aggr4.1" depart="21162.56" from="lane_entry_B" to="lane_exit_A" type="car_aggr4" /><trip id="r_alt_round_5_5_car_aggr2.1" depart="21215.27" from="lane_entry_B" to="lane_exit_A" type="car_aggr2" /><trip id="r_ers_alt_1_5_car_aggr2.5" depart="21221.31" from="lane_entry_D" to="lane_exit_B" type="car_aggr2" /><trip id="r_luz_oba_KS_____5_car_aggr4.0" depart="21238.48" from="lane_entry_B" to="lane_exit_D" type="car_aggr4" /><trip id="r_ers_alt_1_5_car_aggr3.9" depart="21264.41" from="lane_entry_D" to="lane_exit_B" type="car_aggr3" /><trip id="r_alt_round4_5_car_aggr5.0" depart="21345.92" from="lane_entry_B" to="lane_exit_B" type="car_aggr5" /><trip id="r_alt_and_1_5_car_aggr3.0" depart="21350.5" from="lane_entry_B" to="lane_exit_D" type="car_aggr3" /><trip id="r_alt_round_5_5_small_truck.0" depart="21543.76" from="lane_entry_B" to="lane_exit_A" type="small_truck" /><trip id="r_ers_alt_1_5_car_aggr1.4" depart="21546.56" from="lane_entry_D" to="lane_exit_B" type="car_aggr1" /><trip id="r_ers_alt_1_5_car_aggr2.6" depart="21551.86" from="lane_entry_D" to="lane_exit_B" type="car_aggr2" /><trip id="r_ers_alt_1_5_car_aggr3.10" depart="21607.22" from="lane_entry_D" to="lane_exit_B" type="car_aggr3" /><trip id="r_ers_alt_1_5_car_aggr1.5" depart="21770.26" from="lane_entry_D" to="lane_exit_B" type="car_aggr1" /><trip id="r_ers_alt_1_5_car_aggr4.2" depart="21774.06" from="lane_entry_D" to="lane_exit_B" type="car_aggr4" /><trip id="r_ers_alt_1_5_car_aggr1.6" depart="21780.97" from="lane_entry_D" to="lane_exit_B" type="car_aggr1" /><trip id="r_alt_round4_6_car_aggr3.0" depart="21836.2" from="lane_entry_B" to="lane_exit_B" type="car_aggr3" /><trip id="r_ers_alt_1_6_car_aggr4.0" depart="21847.5" from="lane_entry_D" to="lane_exit_B" type="car_aggr4" /><trip id="r_ers_alt_1_6_car_aggr3.0" depart="21864.01" from="lane_entry_D" to="lane_exit_B" type="car_aggr3" /><trip id="r_alt_round4_6_car_aggr1.0" depart="21915.83" from="lane_entry_B" to="lane_exit_B" type="car_aggr1" /><trip id="r_alt_round4_6_car_aggr3.1" depart="21921.65" from="lane_entry_B" to="lane_exit_B" type="car_aggr3" /><trip id="r_alt_round_5_6_small_truck.0" depart="21951.83" from="lane_entry_B" to="lane_exit_A" type="small_truck" /><trip id="r_ers_alt_1_6_car_aggr2.0" depart="21957.86" from="lane_entry_D" to="lane_exit_B" type="car_aggr2" /><trip id="r_ers_alt_1_6_car_aggr5.0" depart="21961.06" from="lane_entry_D" to="lane_exit_B" type="car_aggr5" /><trip id="r_ers_alt_1_6_car_aggr3.1" depart="21965.92" from="lane_entry_D" to="lane_exit_B" type="car_aggr3" /><trip id="r_alt_round_5_6_car_aggr3.0" depart="21971.67" from="lane_entry_B" to="lane_exit_A" type="car_aggr3" /><trip id="r_ers_alt_1_6_car_aggr4.1" depart="22013.25" from="lane_entry_D" to="lane_exit_B" type="car_aggr4" /><trip id="r_alt_round4_6_car_aggr2.0" depart="22072.54" from="lane_entry_B" to="lane_exit_B" type="car_aggr2" /><trip id="r_ers_alt_1_6_small_truck.0" depart="22077.19" from="lane_entry_D" to="lane_exit_B" type="small_truck" /><trip id="r_alt_round3_6_car_aggr3.0" depart="22139.96" from="lane_entry_B" to="lane_exit_B" type="car_aggr3" /><trip id="r_ers_alt_1_6_small_truck.1" depart="22198.53" from="lane_entry_D" to="lane_exit_B" type="small_truck" /><trip id="r_ers_alt_1_6_car_aggr4.2" depart="22202.27" from="lane_entry_D" to="lane_exit_B" type="car_aggr4" /><trip id="r_alt_round3_6_car_aggr2.0" depart="22205.39" from="lane_entry_B" to="lane_exit_B" type="car_aggr2" /><trip id="r_alt_round_5_6_car_aggr4.0" depart="22249.29" from="lane_entry_B" to="lane_exit_A" type="car_aggr4" /><trip id="r_ers_alt_1_6_car_aggr1.0" depart="22256.76" from="lane_entry_D" to="lane_exit_B" type="car_aggr1" /><trip id="r_alt_ers_1_6_car_aggr3.0" depart="22300.02" from="lane_entry_A" to="lane_exit_D" type="car_aggr3" /><trip id="r_luz_oba_KS_____5_car_aggr3.0" depart="22349.87" from="lane_entry_B" to="lane_exit_D" type="car_aggr3" /><trip id="r_ers_alt_1_6_car_aggr1.1" depart="22389.54" from="lane_entry_D" to="lane_exit_B" type="car_aggr1" /><trip id="r_ers_alt_1_6_small_truck.2" depart="22393.12" from="lane_entry_D" to="lane_exit_B" type="small_truck" /><trip id="r_alt_ers_1_6_big_truck.0" depart="22417.01" from="lane_entry_A" to="lane_exit_D" type="big_truck" /><trip id="r_ers_alt_1_6_car_aggr5.1" depart="22510.23" from="lane_entry_D" to="lane_exit_B" type="car_aggr5" /><trip id="r_ers_alt_1_6_car_aggr3.2" depart="22515.1" from="lane_entry_D" to="lane_exit_B" type="car_aggr3" /><trip id="r_alt_round4_6_car_aggr3.2" depart="22518.72" from="lane_entry_B" to="lane_exit_B" type="car_aggr3" /><trip id="r_ers_alt_1_6_car_aggr1.2" depart="22549.97" from="lane_entry_D" to="lane_exit_B" type="car_aggr1" /><trip id="r_alt_round_5_6_car_aggr4.1" depart="22607.79" from="lane_entry_B" to="lane_exit_A" type="car_aggr4" /><trip id="r_ers_alt_1_6_car_aggr4.3" depart="22639.15" from="lane_entry_D" to="lane_exit_B" type="car_aggr4" /><trip id="r_ers_alt_1_6_car_aggr4.4" depart="22663.83" from="lane_entry_D" to="lane_exit_B" type="car_aggr4" /><trip id="r_ers_alt_1_6_car_aggr1.3" depart="22713.23" from="lane_entry_D" to="lane_exit_B" type="car_aggr1" /><trip id="r_ers_alt_1_6_car_aggr3.3" depart="22717.3" from="lane_entry_D" to="lane_exit_B" type="car_aggr3" /><trip id="r_ers_alt_1_6_car_aggr4.5" depart="22737.2" from="lane_entry_D" to="lane_exit_B" type="car_aggr4" /><trip id="r_alt_round4_6_car_aggr3.3" depart="22774.08" from="lane_entry_B" to="lane_exit_B" type="car_aggr3" /><trip id="r_ers_alt_1_6_motorbike.0" depart="22791.73" from="lane_entry_D" to="lane_exit_B" type="motorbike" /><trip id="r_ers_alt_1_6_car_aggr4.6" depart="22825.43" from="lane_entry_D" to="lane_exit_B" type="car_aggr4" /><trip id="r_alt_round3_6_car_aggr2.1" depart="22837.68" from="lane_entry_B" to="lane_exit_B" type="car_aggr2" /><trip id="r_luz_tun_aAl_eEr_6_car_aggr4.0" depart="22865.55" from="lane_entry_A" to="lane_exit_D" type="car_aggr4" /><trip id="r_alt_ers_1_6_car_aggr5.0" depart="22904.77" from="lane_entry_A" to="lane_exit_D" type="car_aggr5" /><trip id="r_luz_tun_aAl_eEr_6_car_aggr1.0" depart="22923.34" from="lane_entry_A" to="lane_exit_D" type="car_aggr1" /><trip id="r_alt_round_5_6_car_aggr3.1" depart="22931.66" from="lane_entry_B" to="lane_exit_A" type="car_aggr3" /><trip id="r_alt_round3_6_car_aggr2.2" depart="22955.16" from="lane_entry_B" to="lane_exit_B" type="car_aggr2" /><trip id="r_alt_ers_1_6_small_truck.0" depart="22994.6" from="lane_entry_A" to="lane_exit_D" type="small_truck" /><trip id="r_alt_round_5_6_small_truck.1" depart="22994.92" from="lane_entry_B" to="lane_exit_A" type="small_truck" /><trip id="r_ers_alt_1_6_car_aggr2.1" depart="23090.82" from="lane_entry_D" to="lane_exit_B" type="car_aggr2" /><trip id="r_ers_alt_1_6_car_aggr2.2" depart="23096.06" from="lane_entry_D" to="lane_exit_B" type="car_aggr2" /><trip id="r_ers_alt_1_6_small_truck.3" depart="23099.59" from="lane_entry_D" to="lane_exit_B" type="small_truck" /><trip id="r_luz_tun_aAl_eEr_6_car_aggr1.1" depart="23107.21" from="lane_entry_A" to="lane_exit_D" type="car_aggr1" /><trip id="r_luz_tun_aAl_eEr_6_car_aggr5.0" depart="23110.53" from="lane_entry_A" to="lane_exit_D" type="car_aggr5" /><trip id="r_ers_alt_1_6_car_aggr5.2" depart="23131.42" from="lane_entry_D" to="lane_exit_B" type="car_aggr5" /><trip id="r_ers_alt_1_6_car_aggr1.4" depart="23138.73" from="lane_entry_D" to="lane_exit_B" type="car_aggr1" /><trip id="r_ers_alt_1_6_car_aggr5.3" depart="23141.91" from="lane_entry_D" to="lane_exit_B" type="car_aggr5" /><trip id="r_ers_alt_1_6_car_aggr3.4" depart="23147.59" from="lane_entry_D" to="lane_exit_B" type="car_aggr3" /><trip id="r_ers_alt_1_6_car_aggr3.5" depart="23220.0" from="lane_entry_D" to="lane_exit_B" type="car_aggr3" /><trip id="r_alt_round4_6_car_aggr5.0" depart="23248.6" from="lane_entry_B" to="lane_exit_B" type="car_aggr5" /><trip id="r_alt_round4_6_car_aggr5.1" depart="23259.77" from="lane_entry_B" to="lane_exit_B" type="car_aggr5" /><trip id="r_alt_round3_6_car_aggr3.1" depart="23264.22" from="lane_entry_B" to="lane_exit_B" type="car_aggr3" /><trip id="r_ers_alt_1_6_car_aggr5.4" depart="23275.45" from="lane_entry_D" to="lane_exit_B" type="car_aggr5" /><trip id="r_alt_round_5_6_car_aggr3.2" depart="23306.09" from="lane_entry_B" to="lane_exit_A" type="car_aggr3" /><trip id="r_ers_alt_1_6_car_aggr2.3" depart="23309.22" from="lane_entry_D" to="lane_exit_B" type="car_aggr2" /><trip id="r_alt_round3_6_big_truck.0" depart="23392.27" from="lane_entry_B" to="lane_exit_B" type="big_truck" /><trip id="r_alt_round_5_6_car_aggr4.2" depart="23423.33" from="lane_entry_B" to="lane_exit_A" type="car_aggr4" /><trip id="r_ers_alt_1_6_car_aggr5.5" depart="23427.54" from="lane_entry_D" to="lane_exit_B" type="car_aggr5" /><trip id="r_luz_tun_aAl_eEr_6_car_aggr2.0" depart="23428.46" from="lane_entry_A" to="lane_exit_D" type="car_aggr2" /><trip id="r_luz_tun_aAl_eEr_6_car_aggr3.0" depart="23432.78" from="lane_entry_A" to="lane_exit_D" type="car_aggr3" /><trip id="r_luz_tun_aAl_eEr_6_small_truck.0" depart="23437.79" from="lane_entry_A" to="lane_exit_D" type="small_truck" /><trip id="r_luz_tun_aAl_eEr_6_car_aggr3.1" depart="23448.72" from="lane_entry_A" to="lane_exit_D" type="car_aggr3" /><trip id="r_luz_tun_aAl_eEr_6_car_aggr4.1" depart="23469.11" from="lane_entry_A" to="lane_exit_D" type="car_aggr4" /><trip id="r_luz_tun_aAl_eEr_6_car_aggr4.2" depart="23472.89" from="lane_entry_A" to="lane_exit_D" type="car_aggr4" /><trip id="r_alt_round4_6_car_aggr3.4" depart="23482.16" from="lane_entry_B" to="lane_exit_B" type="car_aggr3" /><trip id="r_alt_round_5_6_car_aggr4.3" depart="23489.76" from="lane_entry_B" to="lane_exit_A" type="car_aggr4" /><trip id="r_luz_tun_aAl_eEr_6_car_aggr4.3" depart="23570.93" from="lane_entry_A" to="lane_exit_D" type="car_aggr4" /><trip id="r_alt_round_5_6_car_aggr2.0" depart="23571.16" from="lane_entry_B" to="lane_exit_A" type="car_aggr2" /><trip id="r_alt_round_5_6_car_aggr3.3" depart="23575.57" from="lane_entry_B" to="lane_exit_A" type="car_aggr3" /><trip id="r_luz_tun_aAl_eEr_6_motorbike.0" depart="23605.45" from="lane_entry_A" to="lane_exit_D" type="motorbike" /><trip id="r_alt_round_5_6_car_aggr2.1" depart="23646.29" from="lane_entry_B" to="lane_exit_A" type="car_aggr2" /><trip id="r_luz_tun_aAl_eEr_6_car_aggr5.1" depart="23649.07" from="lane_entry_A" to="lane_exit_D" type="car_aggr5" /><trip id="r_ers_alt_1_6_motorbike.1" depart="23654.65" from="lane_entry_D" to="lane_exit_B" type="motorbike" /><trip id="r_alt_ers_1_6_car_aggr4.0" depart="23679.6" from="lane_entry_A" to="lane_exit_D" type="car_aggr4" /><trip id="r_luz_tun_aAl_eEr_6_car_aggr3.2" depart="23753.05" from="lane_entry_A" to="lane_exit_D" type="car_aggr3" /><trip id="r_ers_alt_1_6_car_aggr3.6" depart="23809.07" from="lane_entry_D" to="lane_exit_B" type="car_aggr3" /><trip id="r_alt_round3_6_big_truck.1" depart="23816.03" from="lane_entry_B" to="lane_exit_B" type="big_truck" /><trip id="r_ers_alt_1_6_car_aggr2.4" depart="23828.22" from="lane_entry_D" to="lane_exit_B" type="car_aggr2" /><trip id="r_ers_alt_1_6_car_aggr2.5" depart="23933.5" from="lane_entry_D" to="lane_exit_B" type="car_aggr2" /><trip id="r_ers_alt_1_6_car_aggr4.7" depart="24001.4" from="lane_entry_D" to="lane_exit_B" type="car_aggr4" /><trip id="r_luz_tun_aAl_eEr_6_car_aggr3.3" depart="24022.37" from="lane_entry_A" to="lane_exit_D" type="car_aggr3" /><trip id="r_luz_tun_aAl_eEr_6_car_aggr4.4" depart="24077.77" from="lane_entry_A" to="lane_exit_D" type="car_aggr4" /><trip id="r_alt_round_5_6_small_truck.2" depart="24115.06" from="lane_entry_B" to="lane_exit_A" type="small_truck" /><trip id="r_luz_tun_aAl_eEr_6_car_aggr3.4" depart="24171.88" from="lane_entry_A" to="lane_exit_D" type="car_aggr3" /><trip id="r_ers_alt_1_6_car_aggr5.6" depart="24173.21" from="lane_entry_D" to="lane_exit_B" type="car_aggr5" /><trip id="r_ers_alt_1_6_car_aggr4.8" depart="24177.23" from="lane_entry_D" to="lane_exit_B" type="car_aggr4" /><trip id="r_luz_tun_aAl_eEr_6_car_aggr3.5" depart="24182.48" from="lane_entry_A" to="lane_exit_D" type="car_aggr3" /><trip id="r_ers_alt_1_6_car_aggr3.7" depart="24223.93" from="lane_entry_D" to="lane_exit_B" type="car_aggr3" /><trip id="r_alt_round4_6_car_aggr3.5" depart="24259.35" from="lane_entry_B" to="lane_exit_B" type="car_aggr3" /><trip id="r_ers_alt_1_6_small_truck.4" depart="24271.31" from="lane_entry_D" to="lane_exit_B" type="small_truck" /><trip id="r_ers_alt_1_6_car_aggr3.8" depart="24275.57" from="lane_entry_D" to="lane_exit_B" type="car_aggr3" /><trip id="r_luz_tun_aAl_eEr_6_car_aggr3.6" depart="24283.08" from="lane_entry_A" to="lane_exit_D" type="car_aggr3" /><trip id="r_ers_alt_1_6_car_aggr2.6" depart="24342.38" from="lane_entry_D" to="lane_exit_B" type="car_aggr2" /><trip id="r_luz_tun_aAl_eEr_6_car_aggr4.5" depart="24375.3" from="lane_entry_A" to="lane_exit_D" type="car_aggr4" /><trip id="r_ers_alt_1_6_car_aggr3.9" depart="24385.37" from="lane_entry_D" to="lane_exit_B" type="car_aggr3" /><trip id="r_ers_alt_1_6_car_aggr4.9" depart="24398.0" from="lane_entry_D" to="lane_exit_B" type="car_aggr4" /><trip id="r_ers_alt_1_6_car_aggr5.7" depart="24403.38" from="lane_entry_D" to="lane_exit_B" type="car_aggr5" /><trip id="r_alt_round_5_6_car_aggr3.4" depart="24441.27" from="lane_entry_B" to="lane_exit_A" type="car_aggr3" /><trip id="r_ers_alt_1_6_car_aggr2.7" depart="24482.79" from="lane_entry_D" to="lane_exit_B" type="car_aggr2" /><trip id="r_luz_tun_aAl_eEr_6_car_aggr2.1" depart="24560.55" from="lane_entry_A" to="lane_exit_D" type="car_aggr2" /><trip id="r_ers_alt_1_6_car_aggr3.10" depart="24606.85" from="lane_entry_D" to="lane_exit_B" type="car_aggr3" /><trip id="r_alt_round_5_6_car_aggr2.2" depart="24614.15" from="lane_entry_B" to="lane_exit_A" type="car_aggr2" /><trip id="r_alt_round_5_6_car_aggr3.5" depart="24624.56" from="lane_entry_B" to="lane_exit_A" type="car_aggr3" /><trip id="r_alt_round_5_6_car_aggr3.6" depart="24629.23" from="lane_entry_B" to="lane_exit_A" type="car_aggr3" /><trip id="r_alt_round_5_6_car_aggr5.0" depart="24633.05" from="lane_entry_B" to="lane_exit_A" type="car_aggr5" /><trip id="r_alt_round_5_6_car_aggr5.1" depart="24636.7" from="lane_entry_B" to="lane_exit_A" type="car_aggr5" /><trip id="r_ers_alt_1_6_motorbike.2" depart="24694.72" from="lane_entry_D" to="lane_exit_B" type="motorbike" /><trip id="r_ers_alt_1_6_car_aggr3.11" depart="24699.23" from="lane_entry_D" to="lane_exit_B" type="car_aggr3" /><trip id="r_alt_round3_6_car_aggr2.3" depart="24704.55" from="lane_entry_B" to="lane_exit_B" type="car_aggr2" /><trip id="r_alt_round4_6_big_truck.0" depart="24758.75" from="lane_entry_B" to="lane_exit_B" type="big_truck" /><trip id="r_alt_round3_6_car_aggr2.4" depart="24764.61" from="lane_entry_B" to="lane_exit_B" type="car_aggr2" /><trip id="r_ers_alt_1_6_big_truck.0" depart="24779.01" from="lane_entry_D" to="lane_exit_B" type="big_truck" /><trip id="r_ers_alt_1_6_car_aggr5.8" depart="24782.57" from="lane_entry_D" to="lane_exit_B" type="car_aggr5" /><trip id="r_ers_alt_1_6_small_truck.5" depart="24787.05" from="lane_entry_D" to="lane_exit_B" type="small_truck" /><trip id="r_alt_round_5_6_big_truck.0" depart="24831.63" from="lane_entry_B" to="lane_exit_A" type="big_truck" /><trip id="r_alt_round4_6_car_aggr4.0" depart="24836.35" from="lane_entry_B" to="lane_exit_B" type="car_aggr4" /><trip id="r_ers_alt_1_6_small_truck.6" depart="24853.97" from="lane_entry_D" to="lane_exit_B" type="small_truck" /><trip id="r_alt_round3_6_car_aggr2.5" depart="24880.11" from="lane_entry_B" to="lane_exit_B" type="car_aggr2" /><trip id="r_ers_alt_1_6_car_aggr3.12" depart="24888.66" from="lane_entry_D" to="lane_exit_B" type="car_aggr3" /><trip id="r_ers_alt_1_6_car_aggr2.8" depart="24894.36" from="lane_entry_D" to="lane_exit_B" type="car_aggr2" /><trip id="r_luz_tun_aAl_eEr_6_small_truck.1" depart="24895.19" from="lane_entry_A" to="lane_exit_D" type="small_truck" /><trip id="r_ers_alt_1_6_car_aggr3.13" depart="24898.82" from="lane_entry_D" to="lane_exit_B" type="car_aggr3" /><trip id="r_alt_round_5_6_car_aggr3.7" depart="24908.87" from="lane_entry_B" to="lane_exit_A" type="car_aggr3" /><trip id="r_alt_round_5_6_car_aggr4.4" depart="24913.07" from="lane_entry_B" to="lane_exit_A" type="car_aggr4" /><trip id="r_alt_round_5_6_car_aggr5.2" depart="24916.59" from="lane_entry_B" to="lane_exit_A" type="car_aggr5" /><trip id="r_alt_round_5_6_car_aggr2.3" depart="24925.24" from="lane_entry_B" to="lane_exit_A" type="car_aggr2" /><trip id="r_luz_tun_aAl_eEr_6_car_aggr5.2" depart="24960.47" from="lane_entry_A" to="lane_exit_D" type="car_aggr5" /><trip id="r_alt_round_5_6_small_truck.3" depart="24975.5" from="lane_entry_B" to="lane_exit_A" type="small_truck" /><trip id="r_alt_round_5_6_car_aggr3.8" depart="24996.65" from="lane_entry_B" to="lane_exit_A" type="car_aggr3" /><trip id="r_ers_alt_1_6_car_aggr1.5" depart="25059.22" from="lane_entry_D" to="lane_exit_B" type="car_aggr1" /><trip id="r_alt_round_5_6_sma