<?xml version='1.0' encoding='utf-8'?>
<trips><trip id="r_tun_axs_KS_____1_small_truck.0" depart="5758.48" from="lane_entry_D" to="lane_exit_A" type="small_truck" /><trip id="r_tun_axs_KS_____1_motorbike.0" depart="6101.61" from="lane_entry_D" to="lane_exit_A" type="motorbike" /><trip id="r_tun_axs_KS_____1_car_aggr2.0" depart="6333.98" from="lane_entry_D" to="lane_exit_A" type="car_aggr2" /><trip id="r_tun_axs_KS_____1_car_aggr2.1" depart="6592.95" from="lane_entry_D" to="lane_exit_A" type="car_aggr2" /><trip id="r_alt_and_1_1_car_aggr4.0" depart="6606.95" from="lane_entry_A" to="lane_exit_D" type="car_aggr4" /><trip id="r_alt_and_1_1_car_aggr4.1" depart="7003.33" from="lane_entry_A" to="lane_exit_D" type="car_aggr4" /><trip id="r_and_alt_1_1_car_aggr3.0" depart="7162.74" from="lane_entry_D" to="lane_exit_A" type="car_aggr3" /><trip id="r_tun_axs_KS_____1_car_aggr4.0" depart="7497.07" from="lane_entry_D" to="lane_exit_A" type="car_aggr4" /><trip id="r_tun_axs_KS_____1_car_aggr5.0" depart="7947.26" from="lane_entry_D" to="lane_exit_A" type="car_aggr5" /><trip id="r_alt_and_1_1_motorbike.0" depart="8642.39" from="lane_entry_A" to="lane_exit_D" type="motorbike" /><trip id="r_alt_and_1_3_car_aggr3.0" depart="15035.96" from="lane_entry_A" to="lane_exit_D" type="car_aggr3" /><trip id="r_and_alt_1_4_small_truck.0" depart="16182.78" from="lane_entry_D" to="lane_exit_A" type="small_truck" /><trip id="r_and_alt_1_4_car_aggr1.0" depart="18225.03" from="lane_entry_D" to="lane_exit_A" type="car_aggr1" /><trip id="r_and_alt_1_4_small_truck.1" depart="18294.0" from="lane_entry_D" to="lane_exit_A" type="small_truck" /><trip id="r_alt_and_1_5_big_truck.0" depart="21966.73" from="lane_entry_A" to="lane_exit_D" type="big_truck" /><trip id="r_alt_and_1_5_car_aggr2.0" depart="22529.72" from="lane_entry_A" to="lane_exit_D" type="car_aggr2" /><trip id="r_luz_oba_KS_____5_car_aggr4.0" depart="22555.62" from="lane_entry_A" to="lane_exit_D" type="car_aggr4" /><trip id="r_alt_and_1_5_car_aggr3.0" depart="22560.18" from="lane_entry_A" to="lane_exit_D" type="car_aggr3" /><trip id="r_luz_oba_KS_____5_car_aggr3.0" depart="23673.91" from="lane_entry_A" to="lane_exit_D" type="car_aggr3" /><trip id="r_and_alt_1_7_car_aggr3.0" depart="25883.36" from="lane_entry_D" to="lane_exit_A" type="car_aggr3" /><trip id="r_and_alt_1_7_car_aggr3.1" depart="25911.09" from="lane_entry_D" to="lane_exit_A" type="car_aggr3" /><trip id="r_and_alt_1_7_car_aggr3.2" depart="25953.32" from="lane_entry_D" to="lane_exit_A" type="car_aggr3" /><trip id="r_and_alt_1_7_car_aggr4.0" depart="26289.74" from="lane_entry_D" to="lane_exit_A" type="car_aggr4" /><trip id="r_and_alt_1_7_car_aggr3.3" depart="27195.8" from="lane_entry_D" to="lane_exit_A" type="car_aggr3" /><trip id="r_and_alt_1_7_car_aggr3.4" depart="27812.81" from="lane_entry_D" to="lane_exit_A" type="car_aggr3" /><trip id="r_and_alt_1_7_motorbike.0" depart="28140.44" from="lane_entry_D" to="lane_exit_A" type="motorbike" /><trip id="r_alt_and_1_7_car_aggr4.0" depart="28180.4" from="lane_entry_A" to="lane_exit_D" type="car_aggr4" /><trip id="r_and_alt_1_7_car_aggr3.5" depart="28413.05" from="lane_entry_D" to="lane_exit_A" type="car_aggr3" /><trip id="r_and_alt_1_7_small_truck.0" depart="28967.43" from="lane_entry_D" to="lane_exit_A" type="small_truck" /><trip id="r_and_alt_1_7_motorbike.1" depart="29031.28" from="lane_entry_D" to="lane_exit_A" type="motorbike" /><trip id="r_and_alt_1_7_car_aggr3.6" depart="29231.68" from="lane_entry_D" to="lane_exit_A" type="car_aggr3" /><trip id="r_and_alt_1_8_car_aggr3.0" depart="29519.86" from="lane_entry_D" to="lane_exit_A" type="car_aggr3" /><trip id="r_and_alt_1_8_car_aggr2.0" depart="29761.28" from="lane_entry_D" to="lane_exit_A" type="car_aggr2" /><trip id="r_and_alt_1_8_small_truck.0" depart="30240.73" from="lane_entry_D" to="lane_exit_A" type="small_truck" /><trip id="r_and_alt_1_8_car_aggr4.0" depart="30244.48" from="lane_entry_D" to="lane_exit_A" type="car_aggr4" /><trip id="r_and_alt_1_8_car_aggr3.1" depart="30355.75" from="lane_entry_D" to="lane_exit_A" type="car_aggr3" /><trip id="r_alt_and_1_8_car_aggr3.0" depart="30360.65" from="lane_entry_A" to="lane_exit_D" type="car_aggr3" /><trip id="r_and_alt_1_8_car_aggr2.1" depart="30453.63" from="lane_entry_D" to="lane_exit_A" type="car_aggr2" /><trip id="r_and_alt_1_8_car_aggr3.2" depart="30618.36" from="lane_entry_D" to="lane_exit_A" type="car_aggr3" /><trip id="r_and_alt_1_8_car_aggr1.0" depart="30767.43" from="lane_entry_D" to="lane_exit_A" type="car_aggr1" /><trip id="r_alt_and_1_8_car_aggr2.0" depart="30787.45" from="lane_entry_A" to="lane_exit_D" type="car_aggr2" /><trip id="r_alt_and_1_8_car_aggr4.0" depart="30792.88" from="lane_entry_A" to="lane_exit_D" type="car_aggr4" /><trip id="r_and_alt_1_8_car_aggr3.3" depart="30976.19" from="lane_entry_D" to="lane_exit_A" type="car_aggr3" /><trip id="r_and_alt_1_8_car_aggr3.4" depart="31130.55" from="lane_entry_D" to="lane_exit_A" type="car_aggr3" /><trip id="r_alt_and_1_8_car_aggr4.1" depart="31285.78" from="lane_entry_A" to="lane_exit_D" type="car_aggr4" /><trip id="r_and_alt_1_8_car_aggr3.5" depart="31299.89" from="lane_entry_D" to="lane_exit_A" type="car_aggr3" /><trip id="r_and_alt_1_8_car_aggr4.1" depart="31421.95" from="lane_entry_D" to="lane_exit_A" type="car_aggr4" /><trip id="r_and_alt_1_8_car_aggr4.2" depart="31574.84" from="lane_entry_D" to="lane_exit_A" type="car_aggr4" /><trip id="r_and_alt_1_8_car_aggr4.3" depart="31630.56" from="lane_entry_D" to="lane_exit_A" type="car_aggr4" /><trip id="r_and_alt_1_8_car_aggr2.2" depart="31737.27" from="lane_entry_D" to="lane_exit_A" type="car_aggr2" /><trip id="r_alt_and_1_8_car_aggr2.1" depart="31866.13" from="lane_entry_A" to="lane_exit_D" type="car_aggr2" /><trip id="r_alt_and_1_8_car_aggr4.2" depart="31869.93" from="lane_entry_A" to="lane_exit_D" type="car_aggr4" /><trip id="r_luz_oba_KS_____8_small_truck.0" depart="31995.69" from="lane_entry_A" to="lane_exit_D" type="small_truck" /><trip id="r_alt_and_1_8_car_aggr5.0" depart="31999.12" from="lane_entry_A" to="lane_exit_D" type="car_aggr5" /><trip id="r_and_alt_1_8_big_truck.0" depart="32023.54" from="lane_entry_D" to="lane_exit_A" type="big_truck" /><trip id="r_and_alt_1_8_car_aggr4.4" depart="32196.12" from="lane_entry_D" to="lane_exit_A" type="car_aggr4" /><trip id="r_luz_oba_KS_____8_car_aggr3.0" depart="32234.78" from="lane_entry_A" to="lane_exit_D" type="car_aggr3" /><trip id="r_alt_and_1_8_small_truck.0" depart="32277.49" from="lane_entry_A" to="lane_exit_D" type="small_truck" /><trip id="r_and_alt_1_8_car_aggr4.5" depart="32426.58" from="lane_entry_D" to="lane_exit_A" type="car_aggr4" /><trip id="r_alt_and_1_8_car_aggr1.0" depart="32515.31" from="lane_entry_A" to="lane_exit_D" type="car_aggr1" /><trip id="r_and_alt_1_8_car_aggr4.6" depart="32652.89" from="lane_entry_D" to="lane_exit_A" type="car_aggr4" /><trip id="r_and_alt_1_8_car_aggr5.0" depart="32663.34" from="lane_entry_D" to="lane_exit_A" type="car_aggr5" /><trip id="r_alt_and_1_8_car_aggr2.2" depart="32852.06" from="lane_entry_A" to="lane_exit_D" type="car_aggr2" /><trip id="r_luz_oba_KS_____8_car_aggr2.0" depart="32863.07" from="lane_entry_A" to="lane_exit_D" type="car_aggr2" /><trip id="r_and_alt_1_9_car_aggr3.0" depart="32942.03" from="lane_entry_D" to="lane_exit_A" type="car_aggr3" /><trip id="r_and_alt_1_9_car_aggr2.0" depart="33022.96" from="lane_entry_D" to="lane_exit_A" type="car_aggr2" /><trip id="r_alt_and_1_8_car_aggr3.1" depart="33026.42" from="lane_entry_A" to="lane_exit_D" type="car_aggr3" /><trip id="r_and_alt_1_9_car_aggr1.0" depart="33159.24" from="lane_entry_D" to="lane_exit_A" type="car_aggr1" /><trip id="r_and_alt_1_9_car_aggr2.1" depart="33204.26" from="lane_entry_D" to="lane_exit_A" type="car_aggr2" /><trip id="r_alt_and_1_8_car_aggr2.3" depart="33274.48" from="lane_entry_A" to="lane_exit_D" type="car_aggr2" /><trip id="r_and_alt_1_9_car_aggr3.1" depart="33284.88" from="lane_entry_D" to="lane_exit_A" type="car_aggr3" /><trip id="r_and_alt_1_9_car_aggr4.0" depart="33288.58" from="lane_entry_D" to="lane_exit_A" type="car_aggr4" /><trip id="r_alt_and_1_8_car_aggr3.2" depart="33452.34" from="lane_entry_A" to="lane_exit_D" type="car_aggr3" /><trip id="r_alt_and_1_8_car_aggr3.3" depart="33544.11" from="lane_entry_A" to="lane_exit_D" type="car_aggr3" /><trip id="r_and_alt_1_9_car_aggr3.2" depart="33583.24" from="lane_entry_D" to="lane_exit_A" type="car_aggr3" /><trip id="r_and_alt_1_9_car_aggr5.0" depart="33698.22" from="lane_entry_D" to="lane_exit_A" type="car_aggr5" /><trip id="r_and_alt_1_9_car_aggr3.3" depart="33779.31" from="lane_entry_D" to="lane_exit_A" type="car_aggr3" /><trip id="r_and_alt_1_9_car_aggr3.4" depart="33817.03" from="lane_entry_D" to="lane_exit_A" type="car_aggr3" /><trip id="r_alt_and_1_8_big_truck.0" depart="33936.69" from="lane_entry_A" to="lane_exit_D" type="big_truck" /><trip id="r_and_alt_1_9_big_truck.0" depart="34124.63" from="lane_entry_D" to="lane_exit_A" type="big_truck" /><trip id="r_alt_and_1_8_car_aggr5.1" depart="34175.23" from="lane_entry_A" to="lane_exit_D" type="car_aggr5" /><trip id="r_alt_and_1_8_car_aggr2.4" depart="34181.49" from="lane_entry_A" to="lane_exit_D" type="car_aggr2" /><trip id="r_luz_oba_KS_____8_car_aggr4.0" depart="34185.44" from="lane_entry_A" to="lane_exit_D" type="car_aggr4" /><trip id="r_alt_and_1_8_car_aggr4.3" depart="34189.38" from="lane_entry_A" to="lane_exit_D" type="car_aggr4" /><trip id="r_luz_oba_KS_____8_car_aggr4.1" depart="34193.29" from="lane_entry_A" to="lane_exit_D" type="car_aggr4" /><trip id="r_alt_and_1_8_car_aggr3.4" depart="34198.14" from="lane_entry_A" to="lane_exit_D" type="car_aggr3" /><trip id="r_luz_oba_KS_____8_car_aggr3.1" depart="34202.63" from="lane_entry_A" to="lane_exit_D" type="car_aggr3" /><trip id="r_alt_and_1_9_car_aggr3.0" depart="34206.99" from="lane_entry_A" to="lane_exit_D" type="car_aggr3" /><trip id="r_and_alt_1_9_car_aggr1.1" depart="34487.23" from="lane_entry_D" to="lane_exit_A" type="car_aggr1" /><trip id="r_and_alt_1_9_car_aggr5.1" depart="34490.36" from="lane_entry_D" to="lane_exit_A" type="car_aggr5" /><trip id="r_and_alt_1_9_car_aggr2.2" depart="34496.65" from="lane_entry_D" to="lane_exit_A" type="car_aggr2" /><trip id="r_and_alt_1_9_car_aggr3.5" depart="34514.5" from="lane_entry_D" to="lane_exit_A" type="car_aggr3" /><trip id="r_luz_oba_KS_____8_car_aggr2.1" depart="34749.64" from="lane_entry_A" to="lane_exit_D" type="car_aggr2" /><trip id="r_luz_oba_KS_____8_car_aggr3.2" depart="34754.15" from="lane_entry_A" to="lane_exit_D" type="car_aggr3" /><trip id="r_alt_and_1_9_car_aggr2.0" depart="34759.99" from="lane_entry_A" to="lane_exit_D" type="car_aggr2" /><trip id="r_alt_and_1_9_motorbike.0" depart="34764.08" from="lane_entry_A" to="lane_exit_D" type="motorbike" /><trip id="r_luz_oba_KS_____8_car_aggr3.3" depart="34768.57" from="lane_entry_A" to="lane_exit_D" type="car_aggr3" /><trip id="r_luz_oba_KS_____8_car_aggr3.4" depart="34773.04" from="lane_entry_A" to="lane_exit_D" type="car_aggr3" /><trip id="r_alt_and_1_9_car_aggr5.0" depart="34776.47" from="lane_entry_A" to="lane_exit_D" type="car_aggr5" /><trip id="r_luz_oba_KS_____8_car_aggr2.2" depart="34782.56" from="lane_entry_A" to="lane_exit_D" type="car_aggr2" /><trip id="r_luz_oba_KS_____8_car_aggr5.0" depart="34791.59" from="lane_entry_A" to="lane_exit_D" type="car_aggr5" /><trip id="r_and_alt_1_9_car_aggr3.6" depart="34871.43" from="lane_entry_D" to="lane_exit_A" type="car_aggr3" /><trip id="r_alt_and_1_9_car_aggr1.0" depart="34919.84" from="lane_entry_A" to="lane_exit_D" type="car_aggr1" /><trip id="r_alt_and_1_9_car_aggr2.1" depart="34925.82" from="lane_entry_A" to="lane_exit_D" type="car_aggr2" /><trip id="r_alt_and_1_9_small_truck.0" depart="34929.54" from="lane_entry_A" to="lane_exit_D" type="small_truck" /><trip id="r_and_alt_1_9_car_aggr2.3" depart="35004.99" from="lane_entry_D" to="lane_exit_A" type="car_aggr2" /><trip id="r_alt_and_1_9_car_aggr2.2" depart="35006.64" from="lane_entry_A" to="lane_exit_D" type="car_aggr2" /><trip id="r_luz_oba_KS_____8_car_aggr3.5" depart="35011.07" from="lane_entry_A" to="lane_exit_D" type="car_aggr3" /><trip id="r_alt_and_1_9_car_aggr4.0" depart="35014.94" from="lane_entry_A" to="lane_exit_D" type="car_aggr4" /><trip id="r_alt_and_1_9_car_aggr4.1" depart="35018.79" from="lane_entry_A" to="lane_exit_D" type="car_aggr4" /><trip id="r_alt_and_1_9_car_aggr3.1" depart="35212.12" from="lane_entry_A" to="lane_exit_D" type="car_aggr3" /><trip id="r_luz_oba_KS_____8_motorbike.0" depart="35216.67" from="lane_entry_A" to="lane_exit_D" type="motorbike" /><trip id="r_and_alt_1_9_car_aggr2.4" depart="35316.92" from="lane_entry_D" to="lane_exit_A" type="car_aggr2" /><trip id="r_luz_oba_KS_____9_car_aggr3.0" depart="35352.3" from="lane_entry_A" to="lane_exit_D" type="car_aggr3" /><trip id="r_and_alt_1_9_small_truck.0" depart="35518.55" from="lane_entry_D" to="lane_exit_A" type="small_truck" /><trip id="r_and_alt_1_9_car_aggr2.5" depart="35635.2" from="lane_entry_D" to="lane_exit_A" type="car_aggr2" /><trip id="r_alt_and_1_9_car_aggr3.2" depart="35636.2" from="lane_entry_A" to="lane_exit_D" type="car_aggr3" /><trip id="r_and_alt_1_9_small_truck.1" depart="35773.73" from="lane_entry_D" to="lane_exit_A" type="small_truck" /><trip id="r_alt_and_1_9_car_aggr1.1" depart="35935.19" from="lane_entry_A" to="lane_exit_D" type="car_aggr1" /><trip id="r_alt_and_1_9_car_aggr2.3" depart="35940.74" from="lane_entry_A" to="lane_exit_D" type="car_aggr2" /><trip id="r_and_alt_1_9_car_aggr2.6" depart="36023.81" from="lane_entry_D" to="lane_exit_A" type="car_aggr2" /><trip id="r_luz_oba_KS_____9_car_aggr3.1" depart="36024.75" from="lane_entry_A" to="lane_exit_D" type="car_aggr3" /><trip id="r_and_alt_1_9_car_aggr3.7" depart="36028.16" from="lane_entry_D" to="lane_exit_A" type="car_aggr3" /><trip id="r_and_alt_1_9_car_aggr3.8" depart="36082.58" from="lane_entry_D" to="lane_exit_A" type="car_aggr3" /><trip id="r_alt_and_1_9_car_aggr1.2" depart="36102.22" from="lane_entry_A" to="lane_exit_D" type="car_aggr1" /><trip id="r_alt_and_1_9_motorbike.1" depart="36106.18" from="lane_entry_A" to="lane_exit_D" type="motorbike" /><trip id="r_luz_oba_KS_____9_small_truck.0" depart="36209.11" from="lane_entry_A" to="lane_exit_D" type="small_truck" /><trip id="r_alt_and_1_9_car_aggr3.3" depart="36213.6" from="lane_entry_A" to="lane_exit_D" type="car_aggr3" /><trip id="r_alt_and_1_9_car_aggr3.4" depart="36217.92" from="lane_entry_A" to="lane_exit_D" type="car_aggr3" /><trip id="r_alt_and_1_9_car_aggr2.4" depart="36266.86" from="lane_entry_A" to="lane_exit_D" type="car_aggr2" /><trip id="r_and_alt_1_9_big_truck.1" depart="36371.53" from="lane_entry_D" to="lane_exit_A" type="big_truck" /><trip id="r_and_alt_1_9_car_aggr2.7" depart="36377.33" from="lane_entry_D" to="lane_exit_A" type="car_aggr2" /><trip id="r_and_alt_1_9_small_truck.2" depart="36380.79" from="lane_entry_D" to="lane_exit_A" type="small_truck" /><trip id="r_alt_and_1_9_car_aggr1.3" depart="36434.87" from="lane_entry_A" to="lane_exit_D" type="car_aggr1" /><trip id="r_alt_and_1_9_small_truck.1" depart="36438.5" from="lane_entry_A" to="lane_exit_D" type="small_truck" /><trip id="r_and_alt_1_9_motorbike.0" depart="36494.29" from="lane_entry_D" to="lane_exit_A" type="motorbike" /><trip id="r_alt_and_1_9_car_aggr2.5" depart="36546.7" from="lane_entry_A" to="lane_exit_D" type="car_aggr2" /><trip id="r_and_alt_1_10_car_aggr5.0" depart="36711.56" from="lane_entry_D" to="lane_exit_A" type="car_aggr5" /><trip id="r_luz_oba_KS_____9_big_truck.0" depart="36742.16" from="lane_entry_A" to="lane_exit_D" type="big_truck" /><trip id="r_alt_and_1_9_car_aggr2.6" depart="36748.14" from="lane_entry_A" to="lane_exit_D" type="car_aggr2" /><trip id="r_luz_oba_KS_____9_small_truck.1" depart="36752.43" from="lane_entry_A" to="lane_exit_D" type="small_truck" /><trip id="r_alt_and_1_9_car_aggr5.1" depart="36755.88" from="lane_entry_A" to="lane_exit_D" type="car_aggr5" /><trip id="r_luz_oba_KS_____9_car_aggr3.2" depart="36760.6" from="lane_entry_A" to="lane_exit_D" type="car_aggr3" /><trip id="r_luz_oba_KS_____9_car_aggr3.3" depart="36764.84" from="lane_entry_A" to="lane_exit_D" type="car_aggr3" /><trip id="r_and_alt_1_10_small_truck.0" depart="36852.45" from="lane_entry_D" to="lane_exit_A" type="small_truck" /><trip id="r_and_alt_1_10_car_aggr3.0" depart="36892.93" from="lane_entry_D" to="lane_exit_A" type="car_aggr3" /><trip id="r_alt_and_1_9_car_aggr5.2" depart="37094.97" from="lane_entry_A" to="lane_exit_D" type="car_aggr5" /><trip id="r_alt_and_1_9_car_aggr3.5" depart="37100.92" from="lane_entry_A" to="lane_exit_D" type="car_aggr3" /><trip id="r_luz_oba_KS_____9_car_aggr4.0" depart="37255.38" from="lane_entry_A" to="lane_exit_D" type="car_aggr4" /><trip id="r_and_alt_1_10_car_aggr4.0" depart="37289.24" from="lane_entry_D" to="lane_exit_A" type="car_aggr4" /><trip id="r_and_alt_1_10_car_aggr2.0" depart="37436.44" from="lane_entry_D" to="lane_exit_A" type="car_aggr2" /><trip id="r_and_alt_1_10_car_aggr5.1" depart="37439.68" from="lane_entry_D" to="lane_exit_A" type="car_aggr5" /><trip id="r_alt_and_1_9_car_aggr3.6" depart="37451.27" from="lane_entry_A" to="lane_exit_D" type="car_aggr3" /><trip id="r_and_alt_1_10_car_aggr4.1" depart="37504.06" from="lane_entry_D" to="lane_exit_A" type="car_aggr4" /><trip id="r_luz_oba_KS_____9_car_aggr3.4" depart="37568.65" from="lane_entry_A" to="lane_exit_D" type="car_aggr3" /><trip id="r_and_alt_1_10_car_aggr3.1" depart="37585.48" from="lane_entry_D" to="lane_exit_A" type="car_aggr3" /><trip id="r_luz_oba_KS_____9_car_aggr2.0" depart="37589.22" from="lane_entry_A" to="lane_exit_D" type="car_aggr2" /><trip id="r_alt_and_1_10_car_aggr3.0" depart="37593.54" from="lane_entry_A" to="lane_exit_D" type="car_aggr3" /><trip id="r_alt_and_1_10_small_truck.0" depart="37599.38" from="lane_entry_A" to="lane_exit_D" type="small_truck" /><trip id="r_and_alt_1_10_car_aggr5.2" depart="37666.8" from="lane_entry_D" to="lane_exit_A" type="car_aggr5" /><trip id="r_and_alt_1_10_car_aggr3.2" depart="37740.97" from="lane_entry_D" to="lane_exit_A" type="car_aggr3" /><trip id="r_alt_and_1_10_car_aggr1.0" depart="37755.78" from="lane_entry_A" to="lane_exit_D" type="car_aggr1" /><trip id="r_alt_and_1_10_car_aggr3.1" depart="37760.19" from="lane_entry_A" to="lane_exit_D" type="car_aggr3" /><trip id="r_alt_and_1_10_car_aggr3.2" depart="37805.95" from="lane_entry_A" to="lane_exit_D" type="car_aggr3" /><trip id="r_and_alt_1_10_car_aggr3.3" depart="38111.93" from="lane_entry_D" to="lane_exit_A" type="car_aggr3" /><trip id="r_and_alt_1_10_car_aggr4.2" depart="38129.62" from="lane_entry_D" to="lane_exit_A" type="car_aggr4" /><trip id="r_luz_oba_KS_____9_car_aggr2.1" depart="38131.79" from="lane_entry_A" to="lane_exit_D" type="car_aggr2" /><trip id="r_alt_and_1_10_car_aggr4.0" depart="38135.72" from="lane_entry_A" to="lane_exit_D" type="car_aggr4" /><trip id="r_alt_and_1_10_car_aggr3.3" depart="38140.34" from="lane_entry_A" to="lane_exit_D" type="car_aggr3" /><trip id="r_and_alt_1_10_car_aggr2.1" depart="38227.28" from="lane_entry_D" to="lane_exit_A" type="car_aggr2" /><trip id="r_and_alt_1_10_car_aggr1.0" depart="38281.31" from="lane_entry_D" to="lane_exit_A" type="car_aggr1" /><trip id="r_alt_and_1_10_big_truck.0" depart="38360.86" from="lane_entry_A" to="lane_exit_D" type="big_truck" /><trip id="r_alt_and_1_10_car_aggr3.4" depart="38365.84" from="lane_entry_A" to="lane_exit_D" type="car_aggr3" /><trip id="r_alt_and_1_10_car_aggr1.1" depart="38372.66" from="lane_entry_A" to="lane_exit_D" type="car_aggr1" /><trip id="r_luz_oba_KS_____9_car_aggr2.2" depart="38378.21" from="lane_entry_A" to="lane_exit_D" type="car_aggr2" /><trip id="r_alt_and_1_10_car_aggr2.0" depart="38414.03" from="lane_entry_A" to="lane_exit_D" type="car_aggr2" /><trip id="r_alt_and_1_10_car_aggr5.0" depart="38417.34" from="lane_entry_A" to="lane_exit_D" type="car_aggr5" /><trip id="r_alt_and_1_10_car_aggr3.5" depart="38422.14" from="lane_entry_A" to="lane_exit_D" type="car_aggr3" /><trip id="r_alt_and_1_10_car_aggr2.1" depart="38427.96" from="lane_entry_A" to="lane_exit_D" type="car_aggr2" /><trip id="r_alt_and_1_10_small_truck.1" depart="38431.48" from="lane_entry_A" to="lane_exit_D" type="small_truck" /><trip id="r_alt_and_1_10_car_aggr4.1" depart="38435.51" from="lane_entry_A" to="lane_exit_D" type="car_aggr4" /><trip id="r_alt_and_1_10_motorbike.0" depart="38439.47" from="lane_entry_A" to="lane_exit_D" type="motorbike" /><trip id="r_alt_and_1_10_car_aggr3.6" depart="38501.17" from="lane_entry_A" to="lane_exit_D" type="car_aggr3" /><trip id="r_and_alt_1_10_car_aggr2.2" depart="38523.92" from="lane_entry_D" to="lane_exit_A" type="car_aggr2" /><trip id="r_and_alt_1_10_car_aggr3.4" depart="38529.27" from="lane_entry_D" to="lane_exit_A" type="car_aggr3" /><trip id="r_alt_and_1_10_car_aggr2.2" depart="38597.1" from="lane_entry_A" to="lane_exit_D" type="car_aggr2" /><trip id="r_and_alt_1_10_car_aggr2.3" depart="38732.61" from="lane_entry_D" to="lane_exit_A" type="car_aggr2" /><trip id="r_alt_and_1_10_car_aggr3.7" depart="38976.67" from="lane_entry_A" to="lane_exit_D" type="car_aggr3" /><trip id="r_alt_and_1_10_car_aggr3.8" depart="38981.08" from="lane_entry_A" to="lane_exit_D" type="car_aggr3" /><trip id="r_alt_and_1_10_big_truck.1" depart="38986.1" from="lane_entry_A" to="lane_exit_D" type="big_truck" /><trip id="r_and_alt_1_10_car_aggr3.5" depart="38988.72" from="lane_entry_D" to="lane_exit_A" type="car_aggr3" /><trip id="r_and_alt_1_10_car_aggr1.1" depart="39001.57" from="lane_entry_D" to="lane_exit_A" type="car_aggr1" /><trip id="r_alt_and_1_10_car_aggr3.9" depart="39043.78" from="lane_entry_A" to="lane_exit_D" type="car_aggr3" /><trip id="r_alt_and_1_10_car_aggr2.3" depart="39049.51" from="lane_entry_A" to="lane_exit_D" type="car_aggr2" /><trip id="r_luz_oba_KS_____9_car_aggr2.3" depart="39055.08" from="lane_entry_A" to="lane_exit_D" type="car_aggr2" /><trip id="r_and_alt_1_10_car_aggr3.6" depart="39141.92" from="lane_entry_D" to="lane_exit_A" type="car_aggr3" /><trip id="r_and_alt_1_10_car_aggr3.7" depart="39201.22" from="lane_entry_D" to="lane_exit_A" type="car_aggr3" /><trip id="r_luz_oba_KS_____9_big_truck.1" depart="39205.76" from="lane_entry_A" to="lane_exit_D" type="big_truck" /><trip id="r_luz_oba_KS_____9_car_aggr3.5" depart="39210.81" from="lane_entry_A" to="lane_exit_D" type="car_aggr3" /><trip id="r_alt_and_1_10_small_truck.2" depart="39214.79" from="lane_entry_A" to="lane_exit_D" type="small_truck" /><trip id="r_alt_and_1_10_car_aggr2.4" depart="39220.44" from="lane_entry_A" to="lane_exit_D" type="car_aggr2" /><trip id="r_luz_oba_KS_____9_car_aggr1.0" depart="39226.96" from="lane_entry_A" to="lane_exit_D" type="car_aggr1" /><trip id="r_alt_and_1_10_small_truck.3" depart="39230.75" from="lane_entry_A" to="lane_exit_D" type="small_truck" /><trip id="r_alt_and_1_10_car_aggr5.1" depart="39234.2" from="lane_entry_A" to="lane_exit_D" type="car_aggr5" /><trip id="r_alt_and_1_10_car_aggr4.2" depart="39238.3" from="lane_entry_A" to="lane_exit_D" type="car_aggr4" /><trip id="r_alt_and_1_10_car_aggr1.2" depart="39245.32" from="lane_entry_A" to="lane_exit_D" type="car_aggr1" /><trip id="r_luz_oba_KS_____10_car_aggr2.0" depart="39250.89" from="lane_entry_A" to="lane_exit_D" type="car_aggr2" /><trip id="r_luz_oba_KS_____10_car_aggr3.0" depart="39255.34" from="lane_entry_A" to="lane_exit_D" type="car_aggr3" /><trip id="r_alt_and_1_10_car_aggr3.10" depart="39259.72" from="lane_entry_A" to="lane_exit_D" type="car_aggr3" /><trip id="r_alt_and_1_10_car_aggr3.11" depart="39264.2" from="lane_entry_A" to="lane_exit_D" type="car_aggr3" /><trip id="r_alt_and_1_10_car_aggr5.2" depart="39267.57" from="lane_entry_A" to="lane_exit_D" type="car_aggr5" /><trip id="r_alt_and_1_10_car_aggr3.12" depart="39272.49" from="lane_entry_A" to="lane_exit_D" type="car_aggr3" /><trip id="r_luz_oba_KS_____10_car_aggr4.0" depart="39276.49" from="lane_entry_A" to="lane_exit_D" type="car_aggr4" /><trip id="r_luz_oba_KS_____10_car_aggr3.2" depart="39281.13" from="lane_entry_A" to="lane_exit_D" type="car_aggr3" /><trip id="r_luz_oba_KS_____10_car_aggr3.3" depart="39335.05" from="lane_entry_A" to="lane_exit_D" type="car_aggr3" /><trip id="r_alt_and_1_10_motorbike.1" depart="39403.78" from="lane_entry_A" to="lane_exit_D" type="motorbike" /><trip id="r_alt_and_1_10_car_aggr3.13" depart="39408.35" from="lane_entry_A" to="lane_exit_D" type="car_aggr3" /><trip id="r_and_alt_1_10_small_truck.1" depart="39499.06" from="lane_entry_D" to="lane_exit_A" type="small_truck" /><trip id="r_alt_and_1_10_car_aggr3.14" depart="39518.37" from="lane_entry_A" to="lane_exit_D" type="car_aggr3" /><trip id="r_and_alt_1_10_car_aggr1.2" depart="39711.09" from="lane_entry_D" to="lane_exit_A" type="car_aggr1" /><trip id="r_luz_oba_KS_____10_car_aggr3.1" depart="39798.38" from="lane_entry_A" to="lane_exit_D" type="car_aggr3" /><trip id="r_luz_oba_KS_____10_car_aggr4.1" depart="39802.4" from="lane_entry_A" to="lane_exit_D" type="car_aggr4" /><trip id="r_alt_and_1_10_car_aggr2.5" depart="39808.44" from="lane_entry_A" to="lane_exit_D" type="car_aggr2" /><trip id="r_luz_oba_KS_____10_car_aggr4.2" depart="39812.32" from="lane_entry_A" to="lane_exit_D" type="car_aggr4" /><trip id="r_alt_and_1_10_car_aggr3.15" depart="39817.01" from="lane_entry_A" to="lane_exit_D" type="car_aggr3" /><trip id="r_alt_and_1_10_car_aggr1.3" depart="39839.74" from="lane_entry_A" to="lane_exit_D" type="car_aggr1" /><trip id="r_alt_and_1_10_car_aggr4.3" depart="39843.74" from="lane_entry_A" to="lane_exit_D" type="car_aggr4" /><trip id="r_luz_oba_KS_____10_car_aggr3.4" depart="39848.42" from="lane_entry_A" to="lane_exit_D" type="car_aggr3" /><trip id="r_alt_and_1_10_car_aggr3.16" depart="39852.78" from="lane_entry_A" to="lane_exit_D" type="car_aggr3" /><trip id="r_luz_oba_KS_____10_car_aggr2.1" depart="39858.53" from="lane_entry_A" to="lane_exit_D" type="car_aggr2" /><trip id="r_alt_and_1_10_small_truck.4" depart="39862.2" from="lane_entry_A" to="lane_exit_D" type="small_truck" /><trip id="r_alt_and_1_10_car_aggr1.4" depart="39868.82" from="lane_entry_A" to="lane_exit_D" type="car_aggr1" /><trip id="r_alt_and_1_10_car_aggr3.17" depart="39873.28" from="lane_entry_A" to="lane_exit_D" type="car_aggr3" /><trip id="r_luz_oba_KS_____10_car_aggr5.0" depart="39876.7" from="lane_entry_A" to="lane_exit_D" type="car_aggr5" /><trip id="r_luz_oba_KS_____10_car_aggr3.5" depart="39881.5" from="lane_entry_A" to="lane_exit_D" type="car_aggr3" /><trip id="r_alt_and_1_10_car_aggr2.6" depart="39887.39" from="lane_entry_A" to="lane_exit_D" type="car_aggr2" /><trip id="r_luz_oba_KS_____10_small_truck.0" depart="39949.64" from="lane_entry_A" to="lane_exit_D" type="small_truck" /><trip id="r_alt_and_1_10_car_aggr1.5" depart="39984.05" from="lane_entry_A" to="lane_exit_D" type="car_aggr1" /><trip id="r_and_alt_1_10_car_aggr3.8" depart="40118.69" from="lane_entry_D" to="lane_exit_A" type="car_aggr3" /><trip id="r_alt_and_1_10_car_aggr1.6" depart="40345.85" from="lane_entry_A" to="lane_exit_D" type="car_aggr1" /><trip id="r_luz_oba_KS_____10_small_truck.1" depart="40349.59" from="lane_entry_A" to="lane_exit_D" type="small_truck" /><trip id="r_alt_and_1_10_small_truck.5" depart="40353.38" from="lane_entry_A" to="lane_exit_D" type="small_truck" /><trip id="r_alt_and_1_10_car_aggr4.4" depart="40357.53" from="lane_entry_A" to="lane_exit_D" type="car_aggr4" /><trip id="r_alt_and_1_10_car_aggr5.3" depart="40360.95" from="lane_entry_A" to="lane_exit_D" type="car_aggr5" /><trip id="r_alt_and_1_10_car_aggr2.7" depart="40367.16" from="lane_entry_A" to="lane_exit_D" type="car_aggr2" /><trip id="r_alt_and_1_10_small_truck.6" depart="40370.88" from="lane_entry_A" to="lane_exit_D" type="small_truck" /><trip id="r_luz_oba_KS_____10_car_aggr3.6" depart="40375.57" from="lane_entry_A" to="lane_exit_D" type="car_aggr3" /><trip id="r_alt_and_1_10_small_truck.7" depart="40379.58" from="lane_entry_A" to="lane_exit_D" type="small_truck" /><trip id="r_tun_axs_KS_____11_car_aggr5.0" depart="40431.48" from="lane_entry_D" to="lane_exit_A" type="car_aggr5" /><trip id="r_tun_axs_KS_____11_car_aggr4.0" depart="40491.16" from="lane_entry_D" to="lane_exit_A" type="car_aggr4" /><trip id="r_alt_and_1_10_car_aggr1.7" depart="40571.9" from="lane_entry_A" to="lane_exit_D" type="car_aggr1" /><trip id="r_alt_and_1_10_small_truck.8" depart="40575.67" from="lane_entry_A" to="lane_exit_D" type="small_truck" /><trip id="r_alt_and_1_10_car_aggr3.18" depart="40580.23" from="lane_entry_A" to="lane_exit_D" type="car_aggr3" /><trip id="r_alt_and_1_10_small_truck.9" depart="40584.25" from="lane_entry_A" to="lane_exit_D" type="small_truck" /><trip id="r_alt_and_1_10_car_aggr3.19" depart="40612.41" from="lane_entry_A" to="lane_exit_D" type="car_aggr3" /><trip id="r_alt_and_1_10_small_truck.10" depart="40616.38" from="lane_entry_A" to="lane_exit_D" type="small_truck" /><trip id="r_tun_axs_KS_____11_car_aggr3.0" depart="40616.39" from="lane_entry_D" to="lane_exit_A" type="car_aggr3" /><trip id="r_alt_and_1_10_car_aggr3.20" depart="40620.87" from="lane_entry_A" to="lane_exit_D" type="car_aggr3" /><trip id="r_alt_and_1_10_car_aggr1.8" depart="40627.92" from="lane_entry_A" to="lane_exit_D" type="car_aggr1" /><trip id="r_luz_oba_KS_____10_car_aggr2.2" depart="40633.58" from="lane_entry_A" to="lane_exit_D" type="car_aggr2" /><trip id="r_tun_axs_KS_____11_car_aggr3.1" depart="40663.67" from="lane_entry_D" to="lane_exit_A" type="car_aggr3" /><trip id="r_tun_axs_KS_____11_car_aggr4.1" depart="40667.35" from="lane_entry_D" to="lane_exit_A" type="car_aggr4" /><trip id="r_alt_and_1_10_big_truck.2" depart="40690.95" from="lane_entry_A" to="lane_exit_D" type="big_truck" /><trip id="r_alt_and_1_10_car_aggr3.21" depart="40695.9" from="lane_entry_A" to="lane_exit_D" type="car_aggr3" /><trip id="r_alt_and_1_10_small_truck.11" depart="40699.82" from="lane_entry_A" to="lane_exit_D" type="small_truck" /><trip id="r_alt_and_1_10_car_aggr