<?xml version='1.0' encoding='utf-8'?>
<trips><trip id="r_oba_luz_A______0_car_aggr1.0" depart="2346.46" from="lane_entry_E" to="lane_exit_A" type="car_aggr1" /><trip id="r_oba_luz_A______0_car_aggr2.0" depart="2351.99" from="lane_entry_E" to="lane_exit_A" type="car_aggr2" /><trip id="r_oba_luz_A______0_car_aggr3.0" depart="2748.63" from="lane_entry_E" to="lane_exit_A" type="car_aggr3" /><trip id="r_oba_axs_A______0_car_aggr3.0" depart="3688.91" from="lane_entry_E" to="lane_exit_A" type="car_aggr3" /><trip id="r_oba_luz_A______0_car_aggr1.1" depart="3995.94" from="lane_entry_E" to="lane_exit_A" type="car_aggr1" /><trip id="r_oba_luz_A______0_motorbike.0" depart="3999.82" from="lane_entry_E" to="lane_exit_A" type="motorbike" /><trip id="r_oba_axs_A______0_small_truck.0" depart="4524.48" from="lane_entry_E" to="lane_exit_A" type="small_truck" /><trip id="r_tun_axs_KS_____1_small_truck.0" depart="5629.08" from="lane_entry_B" to="lane_exit_C" type="small_truck" /><trip id="r_tun_axs_KS_____1_motorbike.0" depart="5950.88" from="lane_entry_B" to="lane_exit_C" type="motorbike" /><trip id="r_tun_axs_KS_____1_car_aggr2.0" depart="6209.73" from="lane_entry_B" to="lane_exit_C" type="car_aggr2" /><trip id="r_tun_axs_KS_____1_car_aggr2.1" depart="6446.76" from="lane_entry_B" to="lane_exit_C" type="car_aggr2" /><trip id="r_oba_axs_A______1_car_aggr4.0" depart="6551.35" from="lane_entry_E" to="lane_exit_A" type="car_aggr4" /><trip id="r_and_alt_1_1_car_aggr3.0" depart="6987.89" from="lane_entry_E" to="lane_exit_C" type="car_aggr3" /><trip id="r_alt_and_1_1_car_aggr4.0" depart="7047.38" from="lane_entry_C" to="lane_exit_E" type="car_aggr4" /><trip id="r_alt_and_1_1_car_aggr4.1" depart="7374.82" from="lane_entry_C" to="lane_exit_E" type="car_aggr4" /><trip id="r_tun_axs_KS_____1_car_aggr4.0" depart="7375.88" from="lane_entry_B" to="lane_exit_C" type="car_aggr4" /><trip id="r_tun_axs_KS_____1_car_aggr5.0" depart="7800.87" from="lane_entry_B" to="lane_exit_C" type="car_aggr5" /><trip id="r_oba_axs_A______1_car_aggr2.0" depart="7982.61" from="lane_entry_E" to="lane_exit_A" type="car_aggr2" /><trip id="r_alt_and_1_1_motorbike.0" depart="9005.38" from="lane_entry_C" to="lane_exit_E" type="motorbike" /><trip id="r_luz_oba_A______2_car_aggr3.0" depart="9560.43" from="lane_entry_A" to="lane_exit_E" type="car_aggr3" /><trip id="r_luz_oba_A______2_car_aggr3.1" depart="10504.0" from="lane_entry_A" to="lane_exit_E" type="car_aggr3" /><trip id="r_oba_axs_A______2_car_aggr5.0" depart="10556.92" from="lane_entry_E" to="lane_exit_A" type="car_aggr5" /><trip id="r_luz_oba_A______2_car_aggr4.0" depart="10934.66" from="lane_entry_A" to="lane_exit_E" type="car_aggr4" /><trip id="r_luz_oba_A______2_car_aggr3.2" depart="12198.72" from="lane_entry_A" to="lane_exit_E" type="car_aggr3" /><trip id="r_oba_axs_A______3_car_aggr3.0" depart="12517.87" from="lane_entry_E" to="lane_exit_A" type="car_aggr3" /><trip id="r_oba_axs_A______3_car_aggr3.1" depart="13577.45" from="lane_entry_E" to="lane_exit_A" type="car_aggr3" /><trip id="r_luz_oba_A______3_car_aggr3.0" depart="13668.25" from="lane_entry_A" to="lane_exit_E" type="car_aggr3" /><trip id="r_luz_oba_A______3_car_aggr3.1" depart="13945.27" from="lane_entry_A" to="lane_exit_E" type="car_aggr3" /><trip id="r_luz_oba_A______3_car_aggr3.3" depart="13949.38" from="lane_entry_A" to="lane_exit_E" type="car_aggr3" /><trip id="r_oba_axs_A______3_car_aggr3.2" depart="14099.99" from="lane_entry_E" to="lane_exit_A" type="car_aggr3" /><trip id="r_luz_oba_A______3_car_aggr3.2" depart="14225.68" from="lane_entry_A" to="lane_exit_E" type="car_aggr3" /><trip id="r_oba_axs_A______3_big_truck.0" depart="14311.81" from="lane_entry_E" to="lane_exit_A" type="big_truck" /><trip id="r_oba_axs_A______3_car_aggr5.0" depart="14315.77" from="lane_entry_E" to="lane_exit_A" type="car_aggr5" /><trip id="r_oba_axs_A______3_car_aggr2.0" depart="14856.55" from="lane_entry_E" to="lane_exit_A" type="car_aggr2" /><trip id="r_oba_axs_A______3_car_aggr4.0" depart="14864.01" from="lane_entry_E" to="lane_exit_A" type="car_aggr4" /><trip id="r_luz_oba_A______3_car_aggr3.4" depart="14888.34" from="lane_entry_A" to="lane_exit_E" type="car_aggr3" /><trip id="r_luz_oba_A______3_car_aggr1.0" depart="15215.93" from="lane_entry_A" to="lane_exit_E" type="car_aggr1" /><trip id="r_alt_and_1_3_car_aggr3.0" depart="15376.0" from="lane_entry_C" to="lane_exit_E" type="car_aggr3" /><trip id="r_and_alt_1_4_small_truck.0" depart="15980.34" from="lane_entry_E" to="lane_exit_C" type="small_truck" /><trip id="r_luz_oba_A______3_small_truck.0" depart="16307.15" from="lane_entry_A" to="lane_exit_E" type="small_truck" /><trip id="r_luz_oba_A______4_car_aggr3.0" depart="16674.36" from="lane_entry_A" to="lane_exit_E" type="car_aggr3" /><trip id="r_luz_oba_A______4_car_aggr3.1" depart="18002.03" from="lane_entry_A" to="lane_exit_E" type="car_aggr3" /><trip id="r_and_alt_1_4_car_aggr1.0" depart="18005.47" from="lane_entry_E" to="lane_exit_C" type="car_aggr1" /><trip id="r_and_alt_1_4_small_truck.1" depart="18115.06" from="lane_entry_E" to="lane_exit_C" type="small_truck" /><trip id="r_oba_axs_A______5_car_aggr5.0" depart="20354.99" from="lane_entry_E" to="lane_exit_A" type="car_aggr5" /><trip id="r_luz_oba_A______5_car_aggr2.0" depart="20378.82" from="lane_entry_A" to="lane_exit_E" type="car_aggr2" /><trip id="r_oba_axs_A______5_small_truck.0" depart="20453.46" from="lane_entry_E" to="lane_exit_A" type="small_truck" /><trip id="r_oba_axs_A______5_car_aggr4.0" depart="20459.85" from="lane_entry_E" to="lane_exit_A" type="car_aggr4" /><trip id="r_oba_axs_A______5_car_aggr3.0" depart="20465.67" from="lane_entry_E" to="lane_exit_A" type="car_aggr3" /><trip id="r_luz_oba_A______5_car_aggr3.0" depart="21174.68" from="lane_entry_A" to="lane_exit_E" type="car_aggr3" /><trip id="r_luz_oba_A______5_small_truck.0" depart="21861.05" from="lane_entry_A" to="lane_exit_E" type="small_truck" /><trip id="r_luz_oba_A______5_car_aggr2.1" depart="22343.01" from="lane_entry_A" to="lane_exit_E" type="car_aggr2" /><trip id="r_alt_and_1_5_big_truck.0" depart="22494.73" from="lane_entry_C" to="lane_exit_E" type="big_truck" /><trip id="r_oba_axs_A______5_car_aggr4.1" depart="22599.36" from="lane_entry_E" to="lane_exit_A" type="car_aggr4" /><trip id="r_oba_axs_A______6_car_aggr5.0" depart="22602.71" from="lane_entry_E" to="lane_exit_A" type="car_aggr5" /><trip id="r_oba_luz_A______6_car_aggr4.0" depart="22869.93" from="lane_entry_E" to="lane_exit_A" type="car_aggr4" /><trip id="r_alt_and_1_5_car_aggr2.0" depart="22949.2" from="lane_entry_C" to="lane_exit_E" type="car_aggr2" /><trip id="r_luz_oba_KS_____5_car_aggr4.0" depart="22952.83" from="lane_entry_C" to="lane_exit_E" type="car_aggr4" /><trip id="r_alt_and_1_5_car_aggr3.0" depart="22957.3" from="lane_entry_C" to="lane_exit_E" type="car_aggr3" /><trip id="r_oba_axs_A______6_car_aggr3.0" depart="23051.4" from="lane_entry_E" to="lane_exit_A" type="car_aggr3" /><trip id="r_luz_oba_A______5_big_truck.0" depart="23140.06" from="lane_entry_A" to="lane_exit_E" type="big_truck" /><trip id="r_luz_oba_A______5_car_aggr4.0" depart="23191.57" from="lane_entry_A" to="lane_exit_E" type="car_aggr4" /><trip id="r_luz_oba_A______5_car_aggr1.0" depart="23474.88" from="lane_entry_A" to="lane_exit_E" type="car_aggr1" /><trip id="r_oba_luz_A______6_car_aggr3.0" depart="23616.52" from="lane_entry_E" to="lane_exit_A" type="car_aggr3" /><trip id="r_luz_oba_A______6_car_aggr2.0" depart="23698.88" from="lane_entry_A" to="lane_exit_E" type="car_aggr2" /><trip id="r_luz_oba_A______6_car_aggr2.1" depart="23794.21" from="lane_entry_A" to="lane_exit_E" type="car_aggr2" /><trip id="r_luz_oba_A______6_car_aggr4.0" depart="23854.8" from="lane_entry_A" to="lane_exit_E" type="car_aggr4" /><trip id="r_oba_axs_A______6_big_truck.0" depart="23891.66" from="lane_entry_E" to="lane_exit_A" type="big_truck" /><trip id="r_oba_axs_A______6_car_aggr3.1" depart="23896.63" from="lane_entry_E" to="lane_exit_A" type="car_aggr3" /><trip id="r_oba_luz_A______6_car_aggr3.1" depart="23900.99" from="lane_entry_E" to="lane_exit_A" type="car_aggr3" /><trip id="r_oba_axs_A______6_car_aggr1.0" depart="23908.0" from="lane_entry_E" to="lane_exit_A" type="car_aggr1" /><trip id="r_oba_luz_A______6_car_aggr5.0" depart="23911.33" from="lane_entry_E" to="lane_exit_A" type="car_aggr5" /><trip id="r_luz_oba_KS_____5_car_aggr3.0" depart="24054.61" from="lane_entry_C" to="lane_exit_E" type="car_aggr3" /><trip id="r_oba_axs_A______6_car_aggr3.2" depart="24240.38" from="lane_entry_E" to="lane_exit_A" type="car_aggr3" /><trip id="r_oba_luz_A______6_car_aggr4.1" depart="24244.29" from="lane_entry_E" to="lane_exit_A" type="car_aggr4" /><trip id="r_oba_axs_A______6_car_aggr3.3" depart="24253.58" from="lane_entry_E" to="lane_exit_A" type="car_aggr3" /><trip id="r_luz_oba_A______6_car_aggr4.1" depart="24511.48" from="lane_entry_A" to="lane_exit_E" type="car_aggr4" /><trip id="r_luz_oba_A______6_car_aggr2.2" depart="24636.76" from="lane_entry_A" to="lane_exit_E" type="car_aggr2" /><trip id="r_luz_oba_A______6_car_aggr3.0" depart="24641.0" from="lane_entry_A" to="lane_exit_E" type="car_aggr3" /><trip id="r_luz_oba_A______6_car_aggr5.0" depart="24677.45" from="lane_entry_A" to="lane_exit_E" type="car_aggr5" /><trip id="r_oba_luz_A______6_motorbike.0" depart="24679.15" from="lane_entry_E" to="lane_exit_A" type="motorbike" /><trip id="r_luz_oba_A______6_big_truck.0" depart="24741.72" from="lane_entry_A" to="lane_exit_E" type="big_truck" /><trip id="r_luz_oba_A______6_car_aggr2.3" depart="24755.33" from="lane_entry_A" to="lane_exit_E" type="car_aggr2" /><trip id="r_luz_oba_A______6_car_aggr3.1" depart="24827.74" from="lane_entry_A" to="lane_exit_E" type="car_aggr3" /><trip id="r_luz_oba_A______6_car_aggr5.1" depart="24920.1" from="lane_entry_A" to="lane_exit_E" type="car_aggr5" /><trip id="r_luz_oba_A______6_car_aggr2.4" depart="25005.13" from="lane_entry_A" to="lane_exit_E" type="car_aggr2" /><trip id="r_oba_axs_A______6_car_aggr3.4" depart="25005.7" from="lane_entry_E" to="lane_exit_A" type="car_aggr3" /><trip id="r_oba_axs_A______6_motorbike.0" depart="25009.68" from="lane_entry_E" to="lane_exit_A" type="motorbike" /><trip id="r_oba_luz_A______6_car_aggr5.1" depart="25012.9" from="lane_entry_E" to="lane_exit_A" type="car_aggr5" /><trip id="r_luz_oba_A______6_car_aggr3.2" depart="25062.28" from="lane_entry_A" to="lane_exit_E" type="car_aggr3" /><trip id="r_luz_oba_A______6_small_truck.0" depart="25220.94" from="lane_entry_A" to="lane_exit_E" type="small_truck" /><trip id="r_luz_oba_A______6_car_aggr4.2" depart="25238.53" from="lane_entry_A" to="lane_exit_E" type="car_aggr4" /><trip id="r_luz_oba_A______6_car_aggr2.5" depart="25326.95" from="lane_entry_A" to="lane_exit_E" type="car_aggr2" /><trip id="r_oba_axs_A______6_car_aggr2.0" depart="25693.91" from="lane_entry_E" to="lane_exit_A" type="car_aggr2" /><trip id="r_and_alt_1_7_car_aggr3.0" depart="25698.36" from="lane_entry_E" to="lane_exit_C" type="car_aggr3" /><trip id="r_luz_oba_A______6_car_aggr3.3" depart="25725.14" from="lane_entry_A" to="lane_exit_E" type="car_aggr3" /><trip id="r_oba_axs_A______6_car_aggr3.5" depart="25744.74" from="lane_entry_E" to="lane_exit_A" type="car_aggr3" /><trip id="r_and_alt_1_7_car_aggr3.1" depart="25749.08" from="lane_entry_E" to="lane_exit_C" type="car_aggr3" /><trip id="r_and_alt_1_7_car_aggr3.2" depart="25775.88" from="lane_entry_E" to="lane_exit_C" type="car_aggr3" /><trip id="r_luz_oba_A______6_car_aggr3.4" depart="25799.69" from="lane_entry_A" to="lane_exit_E" type="car_aggr3" /><trip id="r_luz_oba_A______6_car_aggr3.5" depart="25919.25" from="lane_entry_A" to="lane_exit_E" type="car_aggr3" /><trip id="r_luz_oba_A______6_car_aggr5.2" depart="26050.61" from="lane_entry_A" to="lane_exit_E" type="car_aggr5" /><trip id="r_luz_oba_A______6_car_aggr4.3" depart="26083.49" from="lane_entry_A" to="lane_exit_E" type="car_aggr4" /><trip id="r_oba_luz_A______6_car_aggr1.0" depart="26097.91" from="lane_entry_E" to="lane_exit_A" type="car_aggr1" /><trip id="r_oba_luz_A______6_car_aggr4.2" depart="26101.74" from="lane_entry_E" to="lane_exit_A" type="car_aggr4" /><trip id="r_luz_oba_A______6_car_aggr2.6" depart="26114.15" from="lane_entry_A" to="lane_exit_E" type="car_aggr2" /><trip id="r_luz_oba_A______6_car_aggr4.4" depart="26119.61" from="lane_entry_A" to="lane_exit_E" type="car_aggr4" /><trip id="r_and_alt_1_7_car_aggr4.0" depart="26139.2" from="lane_entry_E" to="lane_exit_C" type="car_aggr4" /><trip id="r_luz_oba_A______6_small_truck.1" depart="26233.57" from="lane_entry_A" to="lane_exit_E" type="small_truck" /><trip id="r_luz_oba_A______6_car_aggr3.6" depart="26314.98" from="lane_entry_A" to="lane_exit_E" type="car_aggr3" /><trip id="r_luz_oba_A______6_car_aggr2.7" depart="26335.72" from="lane_entry_A" to="lane_exit_E" type="car_aggr2" /><trip id="r_luz_oba_A______6_car_aggr2.8" depart="26518.31" from="lane_entry_A" to="lane_exit_E" type="car_aggr2" /><trip id="r_luz_oba_A______6_car_aggr4.5" depart="26691.67" from="lane_entry_A" to="lane_exit_E" type="car_aggr4" /><trip id="r_luz_oba_A______6_car_aggr3.7" depart="26904.68" from="lane_entry_A" to="lane_exit_E" type="car_aggr3" /><trip id="r_and_alt_1_7_car_aggr3.3" depart="27031.07" from="lane_entry_E" to="lane_exit_C" type="car_aggr3" /><trip id="r_oba_axs_A______7_small_truck.0" depart="27041.76" from="lane_entry_E" to="lane_exit_A" type="small_truck" /><trip id="r_oba_luz_A______7_motorbike.0" depart="27107.4" from="lane_entry_E" to="lane_exit_A" type="motorbike" /><trip id="r_luz_oba_A______6_car_aggr2.9" depart="27163.47" from="lane_entry_A" to="lane_exit_E" type="car_aggr2" /><trip id="r_oba_axs_A______7_car_aggr3.0" depart="27181.06" from="lane_entry_E" to="lane_exit_A" type="car_aggr3" /><trip id="r_luz_oba_A______6_car_aggr3.8" depart="27188.51" from="lane_entry_A" to="lane_exit_E" type="car_aggr3" /><trip id="r_luz_oba_A______6_car_aggr4.6" depart="27192.22" from="lane_entry_A" to="lane_exit_E" type="car_aggr4" /><trip id="r_oba_luz_A______7_car_aggr3.0" depart="27245.2" from="lane_entry_E" to="lane_exit_A" type="car_aggr3" /><trip id="r_luz_oba_A______6_motorbike.0" depart="27267.18" from="lane_entry_A" to="lane_exit_E" type="motorbike" /><trip id="r_luz_oba_A______6_car_aggr2.10" depart="27432.82" from="lane_entry_A" to="lane_exit_E" type="car_aggr2" /><trip id="r_and_alt_1_7_car_aggr3.4" depart="27651.69" from="lane_entry_E" to="lane_exit_C" type="car_aggr3" /><trip id="r_luz_oba_A______6_car_aggr2.11" depart="27663.92" from="lane_entry_A" to="lane_exit_E" type="car_aggr2" /><trip id="r_oba_luz_A______7_car_aggr1.0" depart="27882.45" from="lane_entry_E" to="lane_exit_A" type="car_aggr1" /><trip id="r_oba_luz_A______7_car_aggr3.1" depart="27886.84" from="lane_entry_E" to="lane_exit_A" type="car_aggr3" /><trip id="r_and_alt_1_7_motorbike.0" depart="27935.54" from="lane_entry_E" to="lane_exit_C" type="motorbike" /><trip id="r_oba_axs_A______7_car_aggr2.0" depart="28020.76" from="lane_entry_E" to="lane_exit_A" type="car_aggr2" /><trip id="r_and_alt_1_7_car_aggr3.5" depart="28241.85" from="lane_entry_E" to="lane_exit_C" type="car_aggr3" /><trip id="r_oba_axs_A______7_car_aggr1.0" depart="28376.55" from="lane_entry_E" to="lane_exit_A" type="car_aggr1" /><trip id="r_oba_axs_A______7_small_truck.1" depart="28380.25" from="lane_entry_E" to="lane_exit_A" type="small_truck" /><trip id="r_oba_axs_A______7_car_aggr4.0" depart="28384.33" from="lane_entry_E" to="lane_exit_A" type="car_aggr4" /><trip id="r_luz_oba_A______6_big_truck.1" depart="28421.78" from="lane_entry_A" to="lane_exit_E" type="big_truck" /><trip id="r_luz_oba_A______7_car_aggr1.0" depart="28428.18" from="lane_entry_A" to="lane_exit_E" type="car_aggr1" /><trip id="r_luz_oba_A______7_car_aggr2.0" depart="28433.49" from="lane_entry_A" to="lane_exit_E" type="car_aggr2" /><trip id="r_alt_and_1_7_car_aggr4.0" depart="28594.21" from="lane_entry_C" to="lane_exit_E" type="car_aggr4" /><trip id="r_luz_oba_A______7_car_aggr3.0" depart="28622.15" from="lane_entry_A" to="lane_exit_E" type="car_aggr3" /><trip id="r_luz_oba_A______7_car_aggr4.1" depart="28710.76" from="lane_entry_A" to="lane_exit_E" type="car_aggr4" /><trip id="r_luz_oba_A______7_car_aggr4.0" depart="28741.53" from="lane_entry_A" to="lane_exit_E" type="car_aggr4" /><trip id="r_oba_axs_A______7_small_truck.2" depart="28767.73" from="lane_entry_E" to="lane_exit_A" type="small_truck" /><trip id="r_and_alt_1_7_small_truck.0" depart="28783.91" from="lane_entry_E" to="lane_exit_C" type="small_truck" /><trip id="r_luz_oba_A______7_car_aggr3.1" depart="28855.22" from="lane_entry_A" to="lane_exit_E" type="car_aggr3" /><trip id="r_luz_oba_A______7_big_truck.0" depart="28860.19" from="lane_entry_A" to="lane_exit_E" type="big_truck" /><trip id="r_and_alt_1_7_motorbike.1" depart="28881.12" from="lane_entry_E" to="lane_exit_C" type="motorbike" /><trip id="r_luz_oba_A______7_car_aggr5.0" depart="29017.32" from="lane_entry_A" to="lane_exit_E" type="car_aggr5" /><trip id="r_luz_oba_A______7_car_aggr4.2" depart="29051.07" from="lane_entry_A" to="lane_exit_E" type="car_aggr4" /><trip id="r_and_alt_1_7_car_aggr3.6" depart="29062.7" from="lane_entry_E" to="lane_exit_C" type="car_aggr3" /><trip id="r_oba_axs_A______7_car_aggr1.1" depart="29125.63" from="lane_entry_E" to="lane_exit_A" type="car_aggr1" /><trip id="r_oba_axs_A______7_car_aggr3.1" depart="29136.35" from="lane_entry_E" to="lane_exit_A" type="car_aggr3" /><trip id="r_luz_oba_A______7_car_aggr4.3" depart="29137.67" from="lane_entry_A" to="lane_exit_E" type="car_aggr4" /><trip id="r_oba_luz_A______7_car_aggr3.2" depart="29154.04" from="lane_entry_E" to="lane_exit_A" type="car_aggr3" /><trip id="r_oba_axs_A______7_car_aggr3.2" depart="29158.33" from="lane_entry_E" to="lane_exit_A" type="car_aggr3" /><trip id="r_luz_oba_A______7_car_aggr2.1" depart="29188.05" from="lane_entry_A" to="lane_exit_E" type="car_aggr2" /><trip id="r_and_alt_1_8_car_aggr3.0" depart="29327.83" from="lane_entry_E" to="lane_exit_C" type="car_aggr3" /><trip id="r_luz_oba_A______7_car_aggr3.3" depart="29347.27" from="lane_entry_A" to="lane_exit_E" type="car_aggr3" /><trip id="r_luz_oba_A______7_car_aggr3.4" depart="29391.57" from="lane_entry_A" to="lane_exit_E" type="car_aggr3" /><trip id="r_oba_luz_A______7_car_aggr4.0" depart="29482.76" from="lane_entry_E" to="lane_exit_A" type="car_aggr4" /><trip id="r_oba_axs_A______7_car_aggr5.0" depart="29486.18" from="lane_entry_E" to="lane_exit_A" type="car_aggr5" /><trip id="r_luz_oba_A______7_car_aggr3.2" depart="29501.53" from="lane_entry_A" to="lane_exit_E" type="car_aggr3" /><trip id="r_luz_oba_A______7_car_aggr2.2" depart="29533.57" from="lane_entry_A" to="lane_exit_E" type="car_aggr2" /><trip id="r_and_alt_1_8_car_aggr2.0" depart="29573.34" from="lane_entry_E" to="lane_exit_C" type="car_aggr2" /><trip id="r_luz_oba_A______7_car_aggr5.1" depart="29586.0" from="lane_entry_A" to="lane_exit_E" type="car_aggr5" /><trip id="r_luz_oba_A______7_car_aggr5.2" depart="29589.19" from="lane_entry_A" to="lane_exit_E" type="car_aggr5" /><trip id="r_luz_oba_A______7_big_truck.1" depart="29733.08" from="lane_entry_A" to="lane_exit_E" type="big_truck" /><trip id="r_luz_oba_A______7_small_truck.0" depart="29760.03" from="lane_entry_A" to="lane_exit_E" type="small_truck" /><trip id="r_oba_luz_A______7_small_truck.0" depart="29844.93" from="lane_entry_E" to="lane_exit_A" type="small_truck" /><trip id="r_luz_oba_A______7_car_aggr3.7" depart="29849.88" from="lane_entry_A" to="lane_exit_E" type="car_aggr3" /><trip id="r_luz_oba_A______7_car_aggr3.5" depart="29860.79" from="lane_entry_A" to="lane_exit_E" type="car_aggr3" /><trip id="r_luz_oba_A______7_motorbike.0" depart="29868.67" from="lane_entry_A" to="lane_exit_E" type="motorbike" /><trip id="r_luz_oba_A______7_big_truck.2" depart="29892.8" from="lane_entry_A" to="lane_exit_E" type="big_truck" /><trip id="r_luz_oba_A______7_car_aggr3.6" depart="29897.49" from="lane_entry_A" to="lane_exit_E" type="car_aggr3" /><trip id="r_luz_oba_A______7_car_aggr5.3" depart="29901.27" from="lane_entry_A" to="lane_exit_E" type="car_aggr5" /><trip id="r_luz_oba_A______7_car_aggr1.1" depart="29999.04" from="lane_entry_A" to="lane_exit_E" type="car_aggr1" /><trip id="r_luz_oba_A______7_small_truck.1" depart="30002.52" from="lane_entry_A" to="lane_exit_E" type="small_truck" /><trip id="r_and_alt_1_8_small_truck.0" depart="30040.49" from="lane_entry_E" to="lane_exit_C" type="small_truck" /><trip id="r_and_alt_1_8_car_aggr4.0" depart="30044.49" from="lane_entry_E" to="lane_exit_C" type="car_aggr4" /><trip id="r_oba_axs_A______7_motorbike.0" depart="30119.91" from="lane_entry_E" to="lane_exit_A" type="motorbike" /><trip id="r_luz_oba_A______7_car_aggr3.9" depart="30120.26" from="lane_entry_A" to="lane_exit_E" type="car_aggr3" /><trip id="r_and_alt_1_8_car_aggr3.1" depart="30183.9" from="lane_entry_E" to="lane_exit_C" type="car_aggr3" /><trip id="r_luz_oba_A______7_car_aggr3.8" depart="30225.55" from="lane_entry_A" to="lane_exit_E" type="car_aggr3" /><trip id="r_luz_oba_A______7_car_aggr4.4" depart="30239.85" from="lane_entry_A" to="lane_exit_E" type="car_aggr4" /><trip id="r_oba_axs_A______8_big_truck.0" depart="30246.19" from="lane_entry_E" to="lane_exit_A" type="big_truck" /><trip id="r_and_alt_1_8_car_aggr2.1" depart="30256.27" from="lane_entry_E" to="lane_exit_C" type="car_aggr2" /><trip id="r_oba_axs_A______8_car_aggr4.0" depart="30260.23" from="lane_entry_E" to="lane_exit_A" type="car_aggr4" /><trip id="r_oba_luz_A______8_car_aggr3.0" depart="30395.44" from="lane_entry_E" to="lane_exit_A" type="car_aggr3" /><trip id="r_and_alt_1_8_car_aggr3.2" depart="30452.99" from="lane_entry_E" to="lane_exit_C" type="car_aggr3" /><trip id="r_oba_luz_A______8_car_aggr3.1" depart="30457.22" from="lane_entry_E" to="lane_exit_A" type="car_aggr3" /><trip id="r_luz_oba_A______7_car_aggr1.2" depart="30563.66" from="lane_entry_A" to="lane_exit_E" type="car_aggr1" /><trip id="r_and_alt_1_8_car_aggr1.0" depart="30569.67" from="lane_entry_E" to="lane_exit_C" type="car_aggr1" /><trip id="r_luz_oba_A______7_car_aggr3.10" depart="30614.12" from="lane_entry_A" to="lane_exit_E" type="car_aggr3" /><trip id="r_luz_oba_A______7_car_aggr3.11" depart="30673.58" from="lane_entry_A" to="lane_exit_E" type="car_aggr3" /><trip id="r_alt_and_1_8_car_aggr3.0" depart="30700.35" from="lane_entry_C" to="lane_exit_E" type="car_aggr3" /><trip id="r_oba_axs_A______8_car_aggr3.0" depart="30779.96" from="lane_entry_E" to="lane_exit_A" type="car_aggr3" /><trip id="r_and_alt_1_8_car_aggr3.3" depart="30787.55" from="lane_entry_E" to="lane_exit_C" type="car_aggr3" /><trip id="r_luz_oba_A______7_car_aggr5.4" depart="30799.72" from="lane_entry_A" to="lane_exit_E" type="car_aggr5" /><trip id="r_luz_oba_A______7_car_aggr3.12" depart="30851.12" from="lane_entry_A" to="lane_exit_E" type="car_aggr3" /><trip id="r_luz_oba_A______7_car_aggr3.13" depart="30906.45" from="lane_entry_A" to="lane_exit_E" type="car_aggr3" /><trip id="r_oba_axs_A______8_car_aggr3.1" depart="30928.52" from="lane_entry_E" to="lane_exit_A" type="car_aggr3" /><trip id="r_oba_axs_A______8_car_aggr4.1" depart="30933.56" from="lane_entry_E" to="lane_exit_A" type="car_aggr4" /><trip id="r_oba_luz_A______8_car_aggr4.0" depart="30937.94" from="lane_entry_E" to="lane_exit_A" type="car_aggr4" /><trip id="r_and_alt_1_8_car_aggr3.4" depart="30942.46" from="lane_entry_E" to="lane_exit_C" type="car_aggr3" /><trip id="r_luz_oba_A______7_car_aggr4.5" depart="30954.11" from="lane_entry_A" to="lane_exit_E" type="car_aggr4" /><trip id="r_luz_oba_A______7_car_aggr4.6" depart="31061.12" from="lane_entry_A" to="lane_exit_E" type="car_aggr4" /><trip id="r_luz_oba_A______7_car_aggr5.5" depart="31064.37" from="lane_entry_A" to="lane_exit_E" type="car_aggr5" /><trip id="r_luz_oba_A______7_car_aggr2.3" depart="31086.04" from="lane_entry_A" to="lane_exit_E" type="car_aggr2" /><trip id="r_luz_oba_A______7_car_aggr3.14" depart="31120.25" from="lane_entry_A" to="lane_exit_E" type="car_aggr3" /><trip id="r_and_alt_1_8_car_aggr3.5" depart="31139.22" from="lane_entry_E" to="lane_exit_C" type="car_aggr3" /><trip id="r_alt_and_1_8_car_aggr2.0" depart="31192.76" from="lane_entry_C" to="lane_exit_E" type="car_aggr2" /><trip id="r_alt_and_1_8_car_aggr4.0" depart="31196.31" from="lane_entry_C" to="lane_exit_E" type="car_aggr4" /><trip id="r_and_alt_1_8_car_aggr4.1" depart="31270.1" from="lane_entry_E" to="lane_exit_C" type="car_aggr4" /><trip id="r_luz_oba_A______7_car_aggr3.15" depart="31313.12" from="lane_entry_A" to="lane_exit_E" type="car_aggr3" /><trip id="r_and_alt_1_8_car_aggr4.2" depart="31396.21" from="lane_entry_E" to="lane_exit_C" type="car_aggr4" /><trip id="r_luz_oba_A______7_car_aggr3.16" depart="31441.51" from="lane_entry_A" to="lane_exit_E" type="car_aggr3" /><trip id="r_and_alt_1_8_car_aggr4.3" depart="31450.88" from="lane_entry_E" to="lane_exit_C" type="car_aggr4" /><trip id="r_luz_oba_A______7_car_aggr5.6" depart="31452.5" from="lane_entry_A" to="lane_exit_E" type="car_aggr5" /><trip id="r_oba_axs_A______8_small_truck.0" depart="31487.39" from="lane_entry_E" to="lane_exit_A" type="small_truck" /><trip id="r_oba_axs_A______8_car_aggr4.2" depart="31491.52" from="lane_entry_E" to="lane_exit_A" type="car_aggr4" /><trip id="r_and_alt_1_8_car_aggr2.2" depart="31566.05" from="lane_entry_E" to="lane_exit_C" type="car_aggr2" /><trip id="r_alt_and_1_8_car_aggr4.1" depart="31619.36" from="lane_entry_C" to="lane_exit_E" type="car_aggr4" /><trip id="r_luz_oba_A______7_car_aggr1.3" depart="31714.81" from="lane_entry_A" to="lane_exit_E" type="car_aggr1" /><trip id="r_and_alt_1_8_big_truck.0" depart="31799.1" from="lane_entry_E" to="lane_exit_C" type="big_truck" /><trip id="r_luz_oba_A______7_car_aggr3.17" depart="31841.39" from="lane_entry_A" to="lane_exit_E" type="car_aggr3" /><trip id="r_oba_axs_A______8_car_aggr1.0" depart="31942.49" from="lane_entry_E" to="lane_exit_A" type="car_aggr1" /><trip id="r_oba_axs_A______8_small_truck.1" depart="31946.24" from="lane_entry_E" to="lane_exit_A" type="small_truck" /><trip id="r_oba_luz_A______8_car_aggr3.2" depart="31950.86" from="lane_entry_E" to="lane_exit_A" type="car_aggr3" /><trip id="r_and_alt_1_8_car_aggr4.4" depart="32029.78" from="lane_entry_E" to="lane_exit_C" type="car_aggr4" /><trip id="r_luz_oba_A______7_car_aggr4.7" depart="32048.53" from="lane_entry_A" to="lane_exit_E" type="car_aggr4" /><trip id="r_luz_oba_A______7_car_aggr1.4" depart="32082.3" from="lane_entry_A" to="lane_exit_E" type="car_aggr1" /><trip id="r_oba_luz_A______8_car_aggr2.0" depart="32228.99" from="lane_entry_E" to="lane_exit_A" type="car_aggr2" /><trip id="r_and_alt_1_8_car_aggr4.5" depart="32233.02" from="lane_entry_E" to="lane_exit_C" type="car_aggr4" /><trip id="r_alt_and_1_8_car_aggr2.1" depart="32341.86" from="lane_entry_C" to="lane_exit_E" type="car_aggr2" /><trip id="r_alt_and_1_8_car_aggr4.2" depart="32345.56" from="lane_entry_C" to="lane_exit_E" type="car_aggr4" /><trip id="r_oba_luz_A______8_car_aggr1.0" depart="32383.29" from="lane_entry_E" to="lane_exit_A" type="car_aggr1" /><trip id="r_oba_axs_A______8_car_aggr4.3" depart="32387.21" from="lane_entry_E" to="lane_exit_A" type="car_aggr4" /><trip id="r_oba_axs_A______8_car_aggr3.2" depart="32392.01" from="lane_entry_E" to="lane_exit_A" type="car_aggr3" /><trip id="r_luz_oba_A______7_car_aggr3.19" depart="32395.75" from="lane_entry_A" to="lane_exit_E" type="car_aggr3" /><trip id="r_luz_oba_KS_____8_small_truck.0" depart="32426.9" from="lane_entry_C" to="lane_exit_E" type="small_truck" /><trip id="r_alt_and_1_8_car_aggr5.0" depart="32430.14" from="lane_entry_C" to="lane_exit_E" type="car_aggr5" /><trip id="r_oba_axs_A______8_car_aggr2.0" depart="32462.57" from="lane_entry_E" to="lane_exit_A" type="car_aggr2" /><trip id="r_and_alt_1_8_car_aggr4.6" depart="32468.52" from="lane_entry_E" to="lane_exit_C" type="car_aggr4" /><trip id="r_and_alt_1_8_car_aggr5.0" depart="32475.56" from="lane_entry_E" to="lane_exit_C" type="car_aggr5" /><trip id="r_luz_oba_A______7_car_aggr2.4" depart="32560.41" from="lane_entry_A" to="lane_exit_E" type="car_aggr2" /><trip id="r_luz_oba_KS_____8_car_aggr3.0" depart="32582.99" from="lane_entry_C" to="lane_exit_E" type="car_aggr3" /><trip id="r_alt_and_1_8_small_truck.0" depart="32657.08" from="lane_entry_C" to="lane_exit_E" type="small_truck" /><trip id="r_oba_axs_A______8_car_aggr1.1" depart="32666.53" from="lane_entry_E" to="lane_exit_A" type="car_aggr1" /><trip id="r_oba_axs_A______8_small_truck.2" depart="32670.27" from="lane_entry_E" to="lane_exit_A" type="small_truck" /><trip id="r_and_alt_1_9_car_aggr3.0" depart="32766.81" from="lane_entry_E" to="lane_exit_C" type="car_aggr3" /><trip id="r_oba_axs_A______8_car_aggr5.0" depart="32828.59" from="lane_entry_E" to="lane_exit_A" type="car_aggr5" /><trip id="r_oba_luz_A______8_car_aggr3.3" depart="32833.43" from="lane_entry_E" to="lane_exit_A" type="car_aggr3" /><trip id="r_oba_axs_A______8_car_aggr4.4" depart="32837.31" from="lane_entry_E" to="lane_exit_A" type="car_aggr4" /><trip id="r_and_alt_1_9_car_aggr2.0" depart="32845.55" from="lane_entry_E" to="lane_exit_C" type="car_aggr2" /><trip id="r_luz_oba_A______7_car_aggr3.18" depart="32852.95" from="lane_entry_A" to="lane_exit_E" type="car_aggr3" /><trip id="r_alt_and_1_8_car_aggr1.0" depart="32859.35" from="lane_entry_C" to="lane_exit_E" type="car_aggr1" /><trip id="r_and_alt_1_9_car_aggr1.0" depart="32973.32" from="lane_entry_E" to="lane_exit_C" type="car_aggr1" /><trip id="r_oba_luz_A______8_big_truck.0" depart="32977.63" from="lane_entry_E" to="lane_exit_A" type="big_truck" /><trip id="r_and_alt_1_9_car_aggr2.1" depart="32990.32" from="lane_entry_E" to="lane_exit_C" type="car_aggr2" /><trip id="r_and_alt_1_9_car_aggr3.1" depart="33085.21" from="lane_entry_E" to="lane_exit_C" type="car_aggr3" /><trip id="r_and_alt_1_9_car_aggr4.0" depart="33089.17" from="lane_entry_E" to="lane_exit_C" type="car_aggr4" /><trip id="r_oba_luz_A______