<?xml version='1.0' encoding='utf-8'?>
<trips><trip id="r_axs_tun_aEr_eAm_1_motorbike.0" depart="4977.04" from="lane_entry_A" to="lane_exit_B" type="motorbike" /><trip id="r_axs_tun_aEr_eAm_1_small_truck.0" depart="5468.92" from="lane_entry_A" to="lane_exit_B" type="small_truck" /><trip id="r_alt_and_1_1_car_aggr4.0" depart="5669.92" from="lane_entry_A" to="lane_exit_C" type="car_aggr4" /><trip id="r_luz_tun_aEr_eAm_1_car_aggr3.0" depart="5920.96" from="lane_entry_A" to="lane_exit_B" type="car_aggr3" /><trip id="r_alt_and_1_1_car_aggr4.1" depart="6210.87" from="lane_entry_A" to="lane_exit_C" type="car_aggr4" /><trip id="r_tun_axs_KS_____1_small_truck.0" depart="6568.38" from="lane_entry_C" to="lane_exit_A" type="small_truck" /><trip id="r_luz_tun_aEr_eAm_1_car_aggr3.1" depart="7027.77" from="lane_entry_A" to="lane_exit_B" type="car_aggr3" /><trip id="r_tun_axs_KS_____1_motorbike.0" depart="7053.59" from="lane_entry_C" to="lane_exit_A" type="motorbike" /><trip id="r_tun_axs_KS_____1_car_aggr2.0" depart="7108.65" from="lane_entry_C" to="lane_exit_A" type="car_aggr2" /><trip id="r_axs_tun_aEr_eAm_1_motorbike.1" depart="7321.38" from="lane_entry_A" to="lane_exit_B" type="motorbike" /><trip id="r_luz_tun_aEr_eAm_1_car_aggr2.0" depart="7374.6" from="lane_entry_A" to="lane_exit_B" type="car_aggr2" /><trip id="r_tun_axs_KS_____1_car_aggr2.1" depart="7512.05" from="lane_entry_C" to="lane_exit_A" type="car_aggr2" /><trip id="r_alt_and_1_1_motorbike.0" depart="7869.83" from="lane_entry_A" to="lane_exit_C" type="motorbike" /><trip id="r_and_alt_1_1_car_aggr3.0" depart="7937.58" from="lane_entry_C" to="lane_exit_A" type="car_aggr3" /><trip id="r_tun_axs_KS_____1_car_aggr4.0" depart="8254.82" from="lane_entry_C" to="lane_exit_A" type="car_aggr4" /><trip id="r_tun_axs_KS_____1_car_aggr5.0" depart="8878.59" from="lane_entry_C" to="lane_exit_A" type="car_aggr5" /><trip id="r_alt_and_1_3_car_aggr3.0" depart="14315.28" from="lane_entry_A" to="lane_exit_C" type="car_aggr3" /><trip id="r_and_alt_1_4_small_truck.0" depart="17046.9" from="lane_entry_C" to="lane_exit_A" type="small_truck" /><trip id="r_ams_ers_1_5_car_aggr1.0" depart="18289.28" from="lane_entry_C" to="lane_exit_A" type="car_aggr1" /><trip id="r_ams_ers_1_5_car_aggr3.0" depart="18623.33" from="lane_entry_C" to="lane_exit_A" type="car_aggr3" /><trip id="r_and_alt_1_4_car_aggr1.0" depart="19197.38" from="lane_entry_C" to="lane_exit_A" type="car_aggr1" /><trip id="r_and_alt_1_4_small_truck.1" depart="19200.93" from="lane_entry_C" to="lane_exit_A" type="small_truck" /><trip id="r_ams_ers_1_5_car_aggr1.1" depart="20126.09" from="lane_entry_C" to="lane_exit_A" type="car_aggr1" /><trip id="r_ams_ers_1_5_car_aggr1.2" depart="20456.1" from="lane_entry_C" to="lane_exit_A" type="car_aggr1" /><trip id="r_alt_and_1_5_big_truck.0" depart="20841.68" from="lane_entry_A" to="lane_exit_C" type="big_truck" /><trip id="r_ams_ers_1_5_car_aggr3.1" depart="21128.34" from="lane_entry_C" to="lane_exit_A" type="car_aggr3" /><trip id="r_alt_and_1_5_car_aggr2.0" depart="21639.79" from="lane_entry_A" to="lane_exit_C" type="car_aggr2" /><trip id="r_ams_ers_1_6_car_aggr5.0" depart="21728.26" from="lane_entry_C" to="lane_exit_A" type="car_aggr5" /><trip id="r_luz_oba_KS_____5_car_aggr4.0" depart="21790.7" from="lane_entry_A" to="lane_exit_C" type="car_aggr4" /><trip id="r_alt_and_1_5_car_aggr3.0" depart="21801.52" from="lane_entry_A" to="lane_exit_C" type="car_aggr3" /><trip id="r_ams_ers_1_6_car_aggr5.1" depart="21836.98" from="lane_entry_C" to="lane_exit_A" type="car_aggr5" /><trip id="r_ams_ers_1_6_car_aggr4.0" depart="21896.09" from="lane_entry_C" to="lane_exit_A" type="car_aggr4" /><trip id="r_ams_ers_1_6_car_aggr3.0" depart="21962.26" from="lane_entry_C" to="lane_exit_A" type="car_aggr3" /><trip id="r_ams_ers_1_6_car_aggr4.1" depart="21978.38" from="lane_entry_C" to="lane_exit_A" type="car_aggr4" /><trip id="r_ams_ers_1_6_car_aggr4.2" depart="22023.28" from="lane_entry_C" to="lane_exit_A" type="car_aggr4" /><trip id="r_ams_ers_1_6_small_truck.0" depart="22030.38" from="lane_entry_C" to="lane_exit_A" type="small_truck" /><trip id="r_ams_ers_1_6_car_aggr2.0" depart="22176.95" from="lane_entry_C" to="lane_exit_A" type="car_aggr2" /><trip id="r_ers_ams_1_6_small_truck.0" depart="22272.37" from="lane_entry_A" to="lane_exit_C" type="small_truck" /><trip id="r_ams_ers_1_6_car_aggr2.1" depart="22376.98" from="lane_entry_C" to="lane_exit_A" type="car_aggr2" /><trip id="r_ams_ers_1_6_car_aggr1.0" depart="22496.61" from="lane_entry_C" to="lane_exit_A" type="car_aggr1" /><trip id="r_ams_ers_1_6_car_aggr2.2" depart="22594.98" from="lane_entry_C" to="lane_exit_A" type="car_aggr2" /><trip id="r_ams_ers_1_6_small_truck.1" depart="22598.42" from="lane_entry_C" to="lane_exit_A" type="small_truck" /><trip id="r_luz_oba_KS_____5_car_aggr3.0" depart="22892.77" from="lane_entry_A" to="lane_exit_C" type="car_aggr3" /><trip id="r_ams_ers_1_6_small_truck.2" depart="22934.94" from="lane_entry_C" to="lane_exit_A" type="small_truck" /><trip id="r_ams_ers_1_6_big_truck.0" depart="23029.6" from="lane_entry_C" to="lane_exit_A" type="big_truck" /><trip id="r_ers_ams_1_6_small_truck.1" depart="23074.33" from="lane_entry_A" to="lane_exit_C" type="small_truck" /><trip id="r_ams_ers_1_6_car_aggr4.3" depart="23145.61" from="lane_entry_C" to="lane_exit_A" type="car_aggr4" /><trip id="r_ams_ers_1_6_car_aggr4.4" depart="23273.75" from="lane_entry_C" to="lane_exit_A" type="car_aggr4" /><trip id="r_ams_ers_1_6_small_truck.3" depart="23482.41" from="lane_entry_C" to="lane_exit_A" type="small_truck" /><trip id="r_ams_ers_1_6_car_aggr3.1" depart="23553.8" from="lane_entry_C" to="lane_exit_A" type="car_aggr3" /><trip id="r_ams_ers_1_6_car_aggr2.3" depart="23746.3" from="lane_entry_C" to="lane_exit_A" type="car_aggr2" /><trip id="r_ams_ers_1_6_car_aggr2.4" depart="23775.08" from="lane_entry_C" to="lane_exit_A" type="car_aggr2" /><trip id="r_ams_ers_1_6_car_aggr3.2" depart="23946.34" from="lane_entry_C" to="lane_exit_A" type="car_aggr3" /><trip id="r_ams_ers_1_6_car_aggr4.5" depart="23950.62" from="lane_entry_C" to="lane_exit_A" type="car_aggr4" /><trip id="r_luz_tun_aEr_eAm_6_car_aggr3.0" depart="23987.42" from="lane_entry_A" to="lane_exit_B" type="car_aggr3" /><trip id="r_luz_tun_aEr_eAm_6_car_aggr3.2" depart="23999.42" from="lane_entry_A" to="lane_exit_B" type="car_aggr3" /><trip id="r_luz_tun_aEr_eAm_6_car_aggr3.1" depart="24050.92" from="lane_entry_A" to="lane_exit_B" type="car_aggr3" /><trip id="r_ams_ers_1_6_car_aggr2.5" depart="24055.96" from="lane_entry_C" to="lane_exit_A" type="car_aggr2" /><trip id="r_ams_ers_1_6_car_aggr5.2" depart="24059.18" from="lane_entry_C" to="lane_exit_A" type="car_aggr5" /><trip id="r_ams_ers_1_6_car_aggr2.6" depart="24065.44" from="lane_entry_C" to="lane_exit_A" type="car_aggr2" /><trip id="r_ams_ers_1_6_car_aggr5.3" depart="24068.69" from="lane_entry_C" to="lane_exit_A" type="car_aggr5" /><trip id="r_ams_ers_1_6_car_aggr3.3" depart="24103.51" from="lane_entry_C" to="lane_exit_A" type="car_aggr3" /><trip id="r_ams_ers_1_6_car_aggr1.1" depart="24138.57" from="lane_entry_C" to="lane_exit_A" type="car_aggr1" /><trip id="r_ams_ers_1_6_car_aggr1.2" depart="24282.73" from="lane_entry_C" to="lane_exit_A" type="car_aggr1" /><trip id="r_ams_ers_1_6_car_aggr3.4" depart="24294.59" from="lane_entry_C" to="lane_exit_A" type="car_aggr3" /><trip id="r_ams_ers_1_6_car_aggr2.7" depart="24480.33" from="lane_entry_C" to="lane_exit_A" type="car_aggr2" /><trip id="r_ams_ers_1_6_car_aggr5.4" depart="24521.33" from="lane_entry_C" to="lane_exit_A" type="car_aggr5" /><trip id="r_ers_ams_1_6_car_aggr3.0" depart="24652.79" from="lane_entry_A" to="lane_exit_C" type="car_aggr3" /><trip id="r_axs_tun_aEr_eAm_6_car_aggr4.0" depart="24656.09" from="lane_entry_A" to="lane_exit_B" type="car_aggr4" /><trip id="r_ams_ers_1_6_car_aggr2.8" depart="24670.69" from="lane_entry_C" to="lane_exit_A" type="car_aggr2" /><trip id="r_luz_tun_aEr_eAm_6_car_aggr2.0" depart="24828.4" from="lane_entry_A" to="lane_exit_B" type="car_aggr2" /><trip id="r_ams_ers_1_6_car_aggr2.9" depart="24872.24" from="lane_entry_C" to="lane_exit_A" type="car_aggr2" /><trip id="r_ams_ers_1_6_big_truck.1" depart="24911.26" from="lane_entry_C" to="lane_exit_A" type="big_truck" /><trip id="r_ams_ers_1_6_car_aggr3.5" depart="24915.97" from="lane_entry_C" to="lane_exit_A" type="car_aggr3" /><trip id="r_luz_tun_aEr_eAm_6_car_aggr3.3" depart="24938.51" from="lane_entry_A" to="lane_exit_B" type="car_aggr3" /><trip id="r_ams_ers_1_6_car_aggr2.10" depart="24958.99" from="lane_entry_C" to="lane_exit_A" type="car_aggr2" /><trip id="r_luz_tun_aEr_eAm_6_car_aggr4.0" depart="24973.19" from="lane_entry_A" to="lane_exit_B" type="car_aggr4" /><trip id="r_ams_ers_1_6_big_truck.2" depart="25117.84" from="lane_entry_C" to="lane_exit_A" type="big_truck" /><trip id="r_ams_ers_1_7_motorbike.0" depart="25253.08" from="lane_entry_C" to="lane_exit_A" type="motorbike" /><trip id="r_ams_ers_1_7_small_truck.0" depart="25271.82" from="lane_entry_C" to="lane_exit_A" type="small_truck" /><trip id="r_ams_ers_1_7_car_aggr3.0" depart="25282.41" from="lane_entry_C" to="lane_exit_A" type="car_aggr3" /><trip id="r_axs_tun_aEr_eAm_6_car_aggr5.0" depart="25313.31" from="lane_entry_A" to="lane_exit_B" type="car_aggr5" /><trip id="r_ams_ers_1_7_car_aggr2.0" depart="25393.79" from="lane_entry_C" to="lane_exit_A" type="car_aggr2" /><trip id="r_ams_ers_1_7_car_aggr5.0" depart="25426.71" from="lane_entry_C" to="lane_exit_A" type="car_aggr5" /><trip id="r_ams_ers_1_7_big_truck.0" depart="25600.67" from="lane_entry_C" to="lane_exit_A" type="big_truck" /><trip id="r_ers_ams_1_7_car_aggr2.0" depart="25617.47" from="lane_entry_A" to="lane_exit_C" type="car_aggr2" /><trip id="r_ams_ers_1_7_car_aggr2.1" depart="25627.23" from="lane_entry_C" to="lane_exit_A" type="car_aggr2" /><trip id="r_ams_ers_1_7_car_aggr2.2" depart="25705.96" from="lane_entry_C" to="lane_exit_A" type="car_aggr2" /><trip id="r_ers_ams_1_7_car_aggr3.0" depart="25811.73" from="lane_entry_A" to="lane_exit_C" type="car_aggr3" /><trip id="r_ams_ers_1_7_car_aggr3.1" depart="25821.93" from="lane_entry_C" to="lane_exit_A" type="car_aggr3" /><trip id="r_ams_ers_1_7_car_aggr3.2" depart="25838.86" from="lane_entry_C" to="lane_exit_A" type="car_aggr3" /><trip id="r_ams_ers_1_7_car_aggr3.3" depart="25853.82" from="lane_entry_C" to="lane_exit_A" type="car_aggr3" /><trip id="r_ams_ers_1_7_small_truck.1" depart="26052.54" from="lane_entry_C" to="lane_exit_A" type="small_truck" /><trip id="r_ams_ers_1_7_car_aggr2.3" depart="26082.15" from="lane_entry_C" to="lane_exit_A" type="car_aggr2" /><trip id="r_ers_ams_1_7_car_aggr2.1" depart="26107.35" from="lane_entry_A" to="lane_exit_C" type="car_aggr2" /><trip id="r_luz_tun_aEr_eAm_6_car_aggr3.4" depart="26211.66" from="lane_entry_A" to="lane_exit_B" type="car_aggr3" /><trip id="r_axs_tun_aEr_eAm_6_car_aggr3.0" depart="26215.4" from="lane_entry_A" to="lane_exit_B" type="car_aggr3" /><trip id="r_ams_ers_1_7_car_aggr3.4" depart="26273.02" from="lane_entry_C" to="lane_exit_A" type="car_aggr3" /><trip id="r_ams_ers_1_7_car_aggr1.0" depart="26326.99" from="lane_entry_C" to="lane_exit_A" type="car_aggr1" /><trip id="r_ams_ers_1_7_car_aggr1.1" depart="26394.45" from="lane_entry_C" to="lane_exit_A" type="car_aggr1" /><trip id="r_ams_ers_1_7_car_aggr2.4" depart="26473.34" from="lane_entry_C" to="lane_exit_A" type="car_aggr2" /><trip id="r_ams_ers_1_7_small_truck.2" depart="26528.92" from="lane_entry_C" to="lane_exit_A" type="small_truck" /><trip id="r_ams_ers_1_7_car_aggr1.2" depart="26542.24" from="lane_entry_C" to="lane_exit_A" type="car_aggr1" /><trip id="r_luz_tun_aEr_eAm_6_car_aggr3.5" depart="26630.69" from="lane_entry_A" to="lane_exit_B" type="car_aggr3" /><trip id="r_axs_tun_aEr_eAm_6_small_truck.0" depart="26634.18" from="lane_entry_A" to="lane_exit_B" type="small_truck" /><trip id="r_and_alt_1_7_car_aggr3.0" depart="26637.53" from="lane_entry_C" to="lane_exit_A" type="car_aggr3" /><trip id="r_and_alt_1_7_car_aggr3.1" depart="26641.58" from="lane_entry_C" to="lane_exit_A" type="car_aggr3" /><trip id="r_ams_ers_1_7_car_aggr3.5" depart="26645.69" from="lane_entry_C" to="lane_exit_A" type="car_aggr3" /><trip id="r_ams_ers_1_7_car_aggr5.1" depart="26662.76" from="lane_entry_C" to="lane_exit_A" type="car_aggr5" /><trip id="r_and_alt_1_7_car_aggr3.2" depart="26737.38" from="lane_entry_C" to="lane_exit_A" type="car_aggr3" /><trip id="r_ers_ams_1_7_car_aggr5.0" depart="26823.09" from="lane_entry_A" to="lane_exit_C" type="car_aggr5" /><trip id="r_ams_ers_1_7_car_aggr2.5" depart="26886.41" from="lane_entry_C" to="lane_exit_A" type="car_aggr2" /><trip id="r_and_alt_1_7_car_aggr4.0" depart="26953.03" from="lane_entry_C" to="lane_exit_A" type="car_aggr4" /><trip id="r_ers_ams_1_7_car_aggr5.1" depart="26978.61" from="lane_entry_A" to="lane_exit_C" type="car_aggr5" /><trip id="r_luz_tun_aEr_eAm_7_car_aggr2.0" depart="27023.55" from="lane_entry_A" to="lane_exit_B" type="car_aggr2" /><trip id="r_luz_tun_aEr_eAm_7_car_aggr4.0" depart="27036.6" from="lane_entry_A" to="lane_exit_B" type="car_aggr4" /><trip id="r_ams_ers_1_7_car_aggr3.6" depart="27049.2" from="lane_entry_C" to="lane_exit_A" type="car_aggr3" /><trip id="r_luz_tun_aEr_eAm_7_car_aggr3.0" depart="27064.23" from="lane_entry_A" to="lane_exit_B" type="car_aggr3" /><trip id="r_luz_tun_aEr_eAm_7_car_aggr4.1" depart="27104.32" from="lane_entry_A" to="lane_exit_B" type="car_aggr4" /><trip id="r_luz_tun_aEr_eAm_7_car_aggr4.2" depart="27108.22" from="lane_entry_A" to="lane_exit_B" type="car_aggr4" /><trip id="r_luz_tun_aEr_eAm_7_car_aggr5.0" depart="27111.08" from="lane_entry_A" to="lane_exit_B" type="car_aggr5" /><trip id="r_ams_ers_1_7_small_truck.3" depart="27189.39" from="lane_entry_C" to="lane_exit_A" type="small_truck" /><trip id="r_ams_ers_1_7_car_aggr5.2" depart="27192.64" from="lane_entry_C" to="lane_exit_A" type="car_aggr5" /><trip id="r_ams_ers_1_7_small_truck.4" depart="27224.36" from="lane_entry_C" to="lane_exit_A" type="small_truck" /><trip id="r_ams_ers_1_7_car_aggr4.0" depart="27228.28" from="lane_entry_C" to="lane_exit_A" type="car_aggr4" /><trip id="r_ers_ams_1_7_car_aggr3.1" depart="27247.01" from="lane_entry_A" to="lane_exit_C" type="car_aggr3" /><trip id="r_ams_ers_1_7_car_aggr3.7" depart="27249.17" from="lane_entry_C" to="lane_exit_A" type="car_aggr3" /><trip id="r_luz_tun_aEr_eAm_7_car_aggr3.1" depart="27280.35" from="lane_entry_A" to="lane_exit_B" type="car_aggr3" /><trip id="r_alt_and_1_7_car_aggr4.0" depart="27290.57" from="lane_entry_A" to="lane_exit_C" type="car_aggr4" /><trip id="r_ams_ers_1_7_car_aggr3.8" depart="27328.41" from="lane_entry_C" to="lane_exit_A" type="car_aggr3" /><trip id="r_ams_ers_1_7_car_aggr3.9" depart="27342.45" from="lane_entry_C" to="lane_exit_A" type="car_aggr3" /><trip id="r_ams_ers_1_7_car_aggr1.3" depart="27349.21" from="lane_entry_C" to="lane_exit_A" type="car_aggr1" /><trip id="r_axs_tun_aEr_eAm_6_car_aggr5.1" depart="27350.27" from="lane_entry_A" to="lane_exit_B" type="car_aggr5" /><trip id="r_ams_ers_1_7_car_aggr3.10" depart="27415.74" from="lane_entry_C" to="lane_exit_A" type="car_aggr3" /><trip id="r_ams_ers_1_7_car_aggr2.6" depart="27446.88" from="lane_entry_C" to="lane_exit_A" type="car_aggr2" /><trip id="r_luz_tun_aEr_eAm_7_car_aggr3.2" depart="27466.06" from="lane_entry_A" to="lane_exit_B" type="car_aggr3" /><trip id="r_ams_ers_1_7_car_aggr4.1" depart="27607.68" from="lane_entry_C" to="lane_exit_A" type="car_aggr4" /><trip id="r_ams_ers_1_7_car_aggr2.7" depart="27670.04" from="lane_entry_C" to="lane_exit_A" type="car_aggr2" /><trip id="r_ams_ers_1_7_car_aggr3.11" depart="27695.11" from="lane_entry_C" to="lane_exit_A" type="car_aggr3" /><trip id="r_ams_ers_1_7_car_aggr3.12" depart="27833.58" from="lane_entry_C" to="lane_exit_A" type="car_aggr3" /><trip id="r_luz_tun_aEr_eAm_7_big_truck.0" depart="27912.23" from="lane_entry_A" to="lane_exit_B" type="big_truck" /><trip id="r_luz_tun_aEr_eAm_7_car_aggr1.0" depart="27917.74" from="lane_entry_A" to="lane_exit_B" type="car_aggr1" /><trip id="r_luz_tun_aEr_eAm_7_small_truck.0" depart="27921.24" from="lane_entry_A" to="lane_exit_B" type="small_truck" /><trip id="r_and_alt_1_7_car_aggr3.3" depart="27925.56" from="lane_entry_C" to="lane_exit_A" type="car_aggr3" /><trip id="r_ams_ers_1_7_car_aggr5.3" depart="27928.61" from="lane_entry_C" to="lane_exit_A" type="car_aggr5" /><trip id="r_ams_ers_1_7_car_aggr3.13" depart="27933.5" from="lane_entry_C" to="lane_exit_A" type="car_aggr3" /><trip id="r_luz_tun_aEr_eAm_7_car_aggr3.3" depart="27935.19" from="lane_entry_A" to="lane_exit_B" type="car_aggr3" /><trip id="r_luz_tun_aEr_eAm_7_small_truck.1" depart="27938.86" from="lane_entry_A" to="lane_exit_B" type="small_truck" /><trip id="r_ams_ers_1_7_small_truck.5" depart="27951.32" from="lane_entry_C" to="lane_exit_A" type="small_truck" /><trip id="r_ams_ers_1_7_car_aggr3.14" depart="27983.94" from="lane_entry_C" to="lane_exit_A" type="car_aggr3" /><trip id="r_axs_tun_aEr_eAm_7_car_aggr3.0" depart="27989.3" from="lane_entry_A" to="lane_exit_B" type="car_aggr3" /><trip id="r_luz_tun_aEr_eAm_7_car_aggr3.4" depart="28059.36" from="lane_entry_A" to="lane_exit_B" type="car_aggr3" /><trip id="r_axs_tun_aEr_eAm_7_car_aggr4.0" depart="28062.81" from="lane_entry_A" to="lane_exit_B" type="car_aggr4" /><trip id="r_luz_tun_aEr_eAm_7_car_aggr3.5" depart="28098.77" from="lane_entry_A" to="lane_exit_B" type="car_aggr3" /><trip id="r_ams_ers_1_7_car_aggr3.15" depart="28145.56" from="lane_entry_C" to="lane_exit_A" type="car_aggr3" /><trip id="r_ams_ers_1_7_small_truck.6" depart="28153.7" from="lane_entry_C" to="lane_exit_A" type="small_truck" /><trip id="r_luz_tun_aEr_eAm_7_small_truck.2" depart="28177.82" from="lane_entry_A" to="lane_exit_B" type="small_truck" /><trip id="r_axs_tun_aEr_eAm_7_car_aggr2.0" depart="28182.76" from="lane_entry_A" to="lane_exit_B" type="car_aggr2" /><trip id="r_ams_ers_1_7_car_aggr5.4" depart="28191.46" from="lane_entry_C" to="lane_exit_A" type="car_aggr5" /><trip id="r_axs_tun_aEr_eAm_7_small_truck.0" depart="28277.58" from="lane_entry_A" to="lane_exit_B" type="small_truck" /><trip id="r_ams_ers_1_7_car_aggr2.8" depart="28315.73" from="lane_entry_C" to="lane_exit_A" type="car_aggr2" /><trip id="r_axs_tun_aEr_eAm_7_car_aggr3.1" depart="28333.86" from="lane_entry_A" to="lane_exit_B" type="car_aggr3" /><trip id="r_axs_tun_aEr_eAm_7_motorbike.0" depart="28337.43" from="lane_entry_A" to="lane_exit_B" type="motorbike" /><trip id="r_axs_tun_aEr_eAm_7_car_aggr3.2" depart="28445.1" from="lane_entry_A" to="lane_exit_B" type="car_aggr3" /><trip id="r_luz_tun_aEr_eAm_7_car_aggr2.1" depart="28469.29" from="lane_entry_A" to="lane_exit_B" type="car_aggr2" /><trip id="r_ams_ers_1_7_car_aggr2.9" depart="28510.15" from="lane_entry_C" to="lane_exit_A" type="car_aggr2" /><trip id="r_and_alt_1_7_car_aggr3.4" depart="28524.66" from="lane_entry_C" to="lane_exit_A" type="car_aggr3" /><trip id="r_ams_ers_1_7_car_aggr2.10" depart="28564.78" from="lane_entry_C" to="lane_exit_A" type="car_aggr2" /><trip id="r_luz_tun_aEr_eAm_7_car_aggr2.2" depart="28567.3" from="lane_entry_A" to="lane_exit_B" type="car_aggr2" /><trip id="r_ams_ers_1_7_small_truck.7" depart="28679.94" from="lane_entry_C" to="lane_exit_A" type="small_truck" /><trip id="r_axs_tun_aEr_eAm_7_car_aggr2.1" depart="28696.99" from="lane_entry_A" to="lane_exit_B" type="car_aggr2" /><trip id="r_axs_tun_aEr_eAm_7_car_aggr4.1" depart="28715.71" from="lane_entry_A" to="lane_exit_B" type="car_aggr4" /><trip id="r_ams_ers_1_7_car_aggr2.11" depart="28789.57" from="lane_entry_C" to="lane_exit_A" type="car_aggr2" /><trip id="r_ams_ers_1_7_car_aggr3.16" depart="28834.51" from="lane_entry_C" to="lane_exit_A" type="car_aggr3" /><trip id="r_ams_ers_1_7_small_truck.8" depart="28842.37" from="lane_entry_C" to="lane_exit_A" type="small_truck" /><trip id="r_luz_tun_aEr_eAm_7_big_truck.1" depart="28904.67" from="lane_entry_A" to="lane_exit_B" type="big_truck" /><trip id="r_luz_tun_aEr_eAm_7_car_aggr4.3" depart="28908.62" from="lane_entry_A" to="lane_exit_B" type="car_aggr4" /><trip id="r_luz_tun_aEr_eAm_7_car_aggr4.4" depart="28912.12" from="lane_entry_A" to="lane_exit_B" type="car_aggr4" /><trip id="r_ams_ers_1_8_car_aggr3.0" depart="28938.54" from="lane_entry_C" to="lane_exit_A" type="car_aggr3" /><trip id="r_luz_tun_aEr_eAm_7_car_aggr3.6" depart="28956.83" from="lane_entry_A" to="lane_exit_B" type="car_aggr3" /><trip id="r_axs_tun_aEr_eAm_7_car_aggr4.2" depart="28985.65" from="lane_entry_A" to="lane_exit_B" type="car_aggr4" /><trip id="r_ams_ers_1_8_big_truck.0" depart="29017.31" from="lane_entry_C" to="lane_exit_A" type="big_truck" /><trip id="r_luz_tun_aEr_eAm_7_car_aggr1.1" depart="29039.12" from="lane_entry_A" to="lane_exit_B" type="car_aggr1" /><trip id="r_and_alt_1_7_motorbike.0" depart="29058.6" from="lane_entry_C" to="lane_exit_A" type="motorbike" /><trip id="r_ams_ers_1_8_motorbike.0" depart="29062.81" from="lane_entry_C" to="lane_exit_A" type="motorbike" /><trip id="r_ams_ers_1_8_car_aggr5.0" depart="29065.79" from="lane_entry_C" to="lane_exit_A" type="car_aggr5" /><trip id="r_luz_tun_aEr_eAm_7_car_aggr3.7" depart="29076.33" from="lane_entry_A" to="lane_exit_B" type="car_aggr3" /><trip id="r_ams_ers_1_8_big_truck.1" depart="29127.67" from="lane_entry_C" to="lane_exit_A" type="big_truck" /><trip id="r_and_alt_1_7_car_aggr3.5" depart="29171.16" from="lane_entry_C" to="lane_exit_A" type="car_aggr3" /><trip id="r_axs_tun_aEr_eAm_7_car_aggr2.2" depart="29252.08" from="lane_entry_A" to="lane_exit_B" type="car_aggr2" /><trip id="r_luz_tun_aEr_eAm_7_small_truck.3" depart="29255.83" from="lane_entry_A" to="lane_exit_B" type="small_truck" /><trip id="r_ers_ams_1_8_car_aggr5.0" depart="29258.91" from="lane_entry_A" to="lane_exit_C" type="car_aggr5" /><trip id="r_ams_ers_1_8_car_aggr3.1" depart="29282.98" from="lane_entry_C" to="lane_exit_A" type="car_aggr3" /><trip id="r_ams_ers_1_8_car_aggr4.0" depart="29291.4" from="lane_entry_C" to="lane_exit_A" type="car_aggr4" /><trip id="r_ams_ers_1_8_small_truck.0" depart="29302.01" from="lane_entry_C" to="lane_exit_A" type="small_truck" /><trip id="r_luz_tun_aEr_eAm_7_car_aggr5.1" depart="29429.16" from="lane_entry_A" to="lane_exit_B" type="car_aggr5" /><trip id="r_axs_tun_aEr_eAm_7_car_aggr3.3" depart="29462.51" from="lane_entry_A" to="lane_exit_B" type="car_aggr3" /><trip id="r_axs_tun_aEr_eAm_7_car_aggr5.0" depart="29477.2" from="lane_entry_A" to="lane_exit_B" type="car_aggr5" /><trip id="r_ams_ers_1_8_car_aggr3.2" depart="29512.68" from="lane_entry_C" to="lane_exit_A" type="car_aggr3" /><trip id="r_ams_ers_1_8_big_truck.2" depart="29574.13" from="lane_entry_C" to="lane_exit_A" type="big_truck" /><trip id="r_ams_ers_1_8_car_aggr4.1" depart="29578.2" from="lane_entry_C" to="lane_exit_A" type="car_aggr4" /><trip id="r_axs_tun_aEr_eAm_7_car_aggr4.3" depart="29585.37" from="lane_entry_A" to="lane_exit_B" type="car_aggr4" /><trip id="r_ams_ers_1_8_car_aggr3.3" depart="29622.34" from="lane_entry_C" to="lane_exit_A" type="car_aggr3" /><trip id="r_axs_tun_aEr_eAm_7_car_aggr4.4" depart="29630.03" from="lane_entry_A" to="lane_exit_B" type="car_aggr4" /><trip id="r_alt_and_1_8_car_aggr3.0" depart="29638.58" from="lane_entry_A" to="lane_exit_C" type="car_aggr3" /><trip id="r_luz_tun_aEr_eAm_7_car_aggr5.2" depart="29641.37" from="lane_entry_A" to="lane_exit_B" type="car_aggr5" /><trip id="r_ams_ers_1_8_car_aggr3.4" depart="29700.65" from="lane_entry_C" to="lane_exit_A" type="car_aggr3" /><trip id="r_ers_ams_1_8_car_aggr5.1" depart="29746.54" from="lane_entry_A" to="lane_exit_C" type="car_aggr5" /><trip id="r_luz_tun_aEr_eAm_7_small_truck.4" depart="29750.55" from="lane_entry_A" to="lane_exit_B" type="small_truck" /><trip id="r_and_alt_1_7_small_truck.0" depart="29779.36" from="lane_entry_C" to="lane_exit_A" type="small_truck" /><trip id="r_luz_tun_aEr_eAm_7_car_aggr2.3" depart="29782.86" from="lane_entry_A" to="lane_exit_B" type="car_aggr2" /><trip id="r_and_alt_1_7_motorbike.1" depart="29783.14" from="lane_entry_C" to="lane_exit_A" type="motorbike" /><trip id="r_ams_ers_1_8_car_aggr5.1" depart="29786.15" from="lane_entry_C" to="lane_exit_A" type="car_aggr5" /><trip id="r_axs_tun_aEr_eAm_7_car_aggr3.4" depart="29803.38" from="lane_entry_A" to="lane_exit_B" type="car_aggr3" /><trip id="r_ers_ams_1_8_car_aggr3.0" depart="29835.63" from="lane_entry_A" to="lane_exit_C" type="car_aggr3" /><trip id="r_ams_ers_1_8_car_aggr3.5" depart="29881.04" from="lane_entry_C" to="lane_exit_A" type="car_aggr3" /><trip id="r_axs_tun_aEr_eAm_7_car_aggr1.0" depart="29902.11" from="lane_entry_A" to="lane_exit_B" type="car_aggr1" /><trip id="r_alt_and_1_8_car_aggr2.0" depart="29926.48" from="lane_entry_A" to="lane_exit_C" type="car_aggr2" /><trip id="r_ams_ers_1_8_car_aggr2.0" depart="29949.81" from="lane_entry_C" to="lane_exit_A" type="car_aggr2" /><trip id="r_and_alt_1_7_car_aggr3.6" depart="29978.4" from="lane_entry_C" to="lane_exit_A" type="car_aggr3" /><trip id="r_luz_tun_aEr_eAm_7_car_aggr5.3" depart="29988.54" from="lane_entry_A" to="lane_exit_B" type="car_aggr5" /><trip id="r_luz_tun_aEr_eAm_7_car_aggr3.8" depart="29992.81" from="lane_entry_A" to="lane_exit_B" type="car_aggr3" /><trip id="r_axs_tun_aEr_eAm_7_motorbike.1" depart="29996.64" from="lane_entry_A" to="lane_exit_B" type="motorbike" /><trip id="r_alt_and_1_8_car_aggr4.0" depart="30000.19" from="lane_entry_A" to="lane_exit_C" type="car_aggr4" /><trip id="r_axs_tun_aEr_eAm_7_motorbike.2" depart="30003.93" from="lane_entry_A" to="lane_exit_B" type="motorbike" /><trip id="r_ams_ers_1_8_big_truck.3" depart="30007.81" from="lane_entry_C" to="lane_exit_A" type="big_truck" /><trip id="r_ams_ers_1_8_small_truck.1" depart="30017.38" from="lane_entry_C" to="lane_exit_A" type="small_truck" /><trip id="r_axs_tun_aEr_eAm_7_car_aggr3.5" depart="30030.72" from="lane_entry_A" to="lane_exit_B" type="car_aggr3" /><trip id="r_ams_ers_1_8_car_aggr2.1" depart="30111.33" from="lane_entry_C" to="lane_exit_A" type="car_aggr2" /><trip id="r_axs_tun_aEr_eAm_7_car_aggr3.6" depart="30118.75" from="lane_entry_A" to="lane_exit_B" type="car_aggr3" /><trip id="r_luz_tun_aEr_eAm_7_small_truck.5" depart="30185.05" from="lane_entry_A" to="lane_exit_B" type="small_truck" /><trip id="r_ers_ams_1_8_car_aggr2.0" depart="30189.81" from="lane_entry_A" to="lane_exit_C" type="car_aggr2" /><trip id="r_ers_ams_1_8_car_aggr3.1" depart="30208.77" from="lane_entry_A" to="lane_exit_C" type="car_aggr3" /><trip id="r_luz_tun_aEr_eAm_7_car_aggr3.9" depart="30257.49" from="lane_entry_A" to="lane_exit_B" type="car_aggr3" /><trip id="r_ams_ers_1_8_car_aggr3.6" depart="30359.98" from="lane_entry_C" to="lane_exit_A" type="car_aggr3" /><trip id="r_axs_tun_aEr_eAm_7_car_aggr2.3" depart="30363.31" from="lane_entry_A" to="lane_exit_B" type="car_aggr2" /><trip id="r_axs_tun_aEr_eAm_7_car_aggr3.7" depart="30367.57" from="lane_entry_A" to="lane_exit_B" type="car_aggr3" /><trip id="r_and_alt_1_8_car_aggr3.0" depart="30369.83" from="lane_entry_C" to="lane_exit_A" type="car_aggr3" /><trip id="r_ers_ams_1_8_car_aggr2.1" depart="30380.83" from="lane_entry_A" to="lane_exit_C" type="car_aggr2" /><trip id="r_ers_ams_1_8_car_aggr1.0" depart="30419.7" from="lane_entry_A" to="lane_exit_C" type="car_aggr1" /><trip id="r_ams_ers_1_8_car_aggr1.0" depart="30516.96" from="lane_entry_C" to="lane_exit_A" type="car_aggr1" /><trip id="r_ams_ers_1_8_small_truck.2" depart="30542.65" from="lane_entry_C" to="lane_exit_A" type="small_truck" /><trip id="r_and_alt_1_8_car_aggr2.0" depart="30560.5" from="lane_entry_C" to="lane_exit_A" type="car_aggr2" /><trip id="r_alt_and_1_8_car_aggr4.1" depart="30576.02" from="lane_entry_A" to="lane_exit_C" type="car_aggr4" /><trip id="r_ers_ams_1_8_car_aggr3.2" depart="30601.61" from="lane_entry_A" to="lane_exit_C" type="car_aggr3" /><trip id="r_ams_ers_1_8_car_aggr3.7" depart="30640.99" from="lane_entry_C" to="lane_exit_A" type="car_aggr3" /><trip id="r_ers_ams_1_8_motorbike.0" depart="30709.64" from="lane_entry_A" to="lane_exit_C" type="motorbike" /><trip id="r_axs_tun_aEr_eAm_7_big_truck.0" depart="30715.7" from="lane_entry_A" to="lane_exit_B" type="big_truck" /><trip id="r_ers_ams_1_8_car_aggr5.2" depart="30719.5" from="lane_entry_A" to="lane_exit_C" type="car_aggr5" /><trip id="r_ams_ers_1_8_small_truck.3" depart="30730.67" from="lane_entry_C" to="lane_exit_A" type="small_truck" /><trip id="r_ers_ams_1_8_car_aggr3.3" depart="30748.29" from="lane_entry_A" to="lane_exit_C" type="car_aggr3" /><trip id="r_ams_ers_1_8_car_aggr5.2" depart="30767.31" from="lane_entry_C" to="lane_exit_A" type="car_aggr5" /><trip id="r_ers_ams_1_8_car_aggr3.4" depart="30767.91" from="lane_entry_A" to="lane_exit_C" type="car_aggr3" /><trip id="r_alt_and_1_8_car_aggr2.1" depart="30854.15" from="lane_entry_A" to="lane_exit_C" type="car_aggr2" /><trip id="r_alt_and_1_8_car_aggr4.2" depart="30857.52" from="lane_entry_A" to="lane_exit_C" type="car_aggr4" /><trip id="r_ers_ams_1_8_car_aggr1.1" depart="30887.68" from="lane_entry_A" to="lane_exit_C" type="car_aggr1" /><trip id="r_ers_ams_1_8_car_aggr4.0" depart="30891.22" from="lane_entry_A" to="lane_exit_C" type="car_aggr4" /><trip id="r_ers_ams_1_8_motorbike.1" depart="31016.98" from="lane_entry_A" to="lane_exit_C" type="motorbike" /><trip id="r_ams_ers_1_8_car_aggr3.8" depart="31075.39" from="lane_entry_C" to="lane_exit_A" type="car_aggr3" /><trip id="r_luz_oba_KS_____8_small_truck.0" depart="31077.73" from="lane_entry_A" to="lane_exit_C" type="small_truck" /><trip id="r_axs_tun_aEr_eAm_7_car_aggr3.8" depart="31098.87" from="lane_entry_A" to="lane_exit_B" type="car_aggr3" /><trip id="r_axs_tun_aEr_eAm_7_motorbike.3" depart="31118.37" from="lane_entry_A" to="lane_exit_B" type="motorbike" /><trip id="r_ams_ers_1_8_car_aggr5.3" depart="31119.57" from="lane_entry_C" to="lane_exit_A" type="car_aggr5" /><trip id="r_and_alt_1_8_small_truck.0" depart="31129.62" from="lane_entry_C" to="lane_exit_A" type="small_truck" /><trip id="r_and_alt_1_8_car_aggr