<?xml version='1.0' encoding='utf-8'?>
<trips><trip id="r_axs_tun_aEr_eAm_1_motorbike.0" depart="4679.18" from="lane_entry_A" to="lane_exit_D" type="motorbike" /><trip id="r_axs_tun_aEr_eAm_1_small_truck.0" depart="5099.0" from="lane_entry_A" to="lane_exit_D" type="small_truck" /><trip id="r_alt_and_1_1_car_aggr4.0" depart="5334.71" from="lane_entry_C" to="lane_exit_D" type="car_aggr4" /><trip id="r_luz_tun_aAl_eEr_1_car_aggr2.0" depart="5361.05" from="lane_entry_C" to="lane_exit_B" type="car_aggr2" /><trip id="r_luz_tun_aAl_eEr_1_car_aggr3.0" depart="5365.69" from="lane_entry_C" to="lane_exit_B" type="car_aggr3" /><trip id="r_luz_tun_aEr_eAm_1_car_aggr3.0" depart="5637.3" from="lane_entry_A" to="lane_exit_D" type="car_aggr3" /><trip id="r_luz_tun_aAl_eEr_1_car_aggr4.0" depart="5875.1" from="lane_entry_C" to="lane_exit_B" type="car_aggr4" /><trip id="r_alt_and_1_1_car_aggr4.1" depart="5927.41" from="lane_entry_C" to="lane_exit_D" type="car_aggr4" /><trip id="r_luz_tun_aAl_eEr_1_car_aggr3.1" depart="6315.25" from="lane_entry_C" to="lane_exit_B" type="car_aggr3" /><trip id="r_luz_tun_aEr_eAm_1_car_aggr3.1" depart="6626.3" from="lane_entry_A" to="lane_exit_D" type="car_aggr3" /><trip id="r_axs_tun_aEr_eAm_1_motorbike.1" depart="7000.18" from="lane_entry_A" to="lane_exit_D" type="motorbike" /><trip id="r_tun_axs_KS_____1_small_truck.0" depart="7011.55" from="lane_entry_D" to="lane_exit_C" type="small_truck" /><trip id="r_luz_tun_aEr_eAm_1_car_aggr2.0" depart="7081.82" from="lane_entry_A" to="lane_exit_D" type="car_aggr2" /><trip id="r_tun_axs_KS_____1_motorbike.0" depart="7579.02" from="lane_entry_D" to="lane_exit_C" type="motorbike" /><trip id="r_tun_axs_KS_____1_car_aggr2.0" depart="7584.79" from="lane_entry_D" to="lane_exit_C" type="car_aggr2" /><trip id="r_alt_and_1_1_motorbike.0" depart="7594.1" from="lane_entry_C" to="lane_exit_D" type="motorbike" /><trip id="r_tun_axs_KS_____1_car_aggr2.1" depart="8013.15" from="lane_entry_D" to="lane_exit_C" type="car_aggr2" /><trip id="r_luz_tun_aAl_eEr_1_car_aggr5.0" depart="8314.65" from="lane_entry_C" to="lane_exit_B" type="car_aggr5" /><trip id="r_and_alt_1_1_car_aggr3.0" depart="8360.36" from="lane_entry_D" to="lane_exit_C" type="car_aggr3" /><trip id="r_tun_axs_KS_____1_car_aggr4.0" depart="8668.98" from="lane_entry_D" to="lane_exit_C" type="car_aggr4" /><trip id="r_tun_axs_KS_____1_car_aggr5.0" depart="9385.56" from="lane_entry_D" to="lane_exit_C" type="car_aggr5" /><trip id="r_luz_tun_aAl_eEr_2_car_aggr3.0" depart="10174.36" from="lane_entry_C" to="lane_exit_B" type="car_aggr3" /><trip id="r_luz_tun_aAl_eEr_2_car_aggr2.0" depart="10385.98" from="lane_entry_C" to="lane_exit_B" type="car_aggr2" /><trip id="r_luz_tun_aAl_eEr_2_motorbike.0" depart="11723.05" from="lane_entry_C" to="lane_exit_B" type="motorbike" /><trip id="r_luz_tun_aAl_eEr_2_car_aggr3.1" depart="11897.46" from="lane_entry_C" to="lane_exit_B" type="car_aggr3" /><trip id="r_luz_tun_aAl_eEr_2_car_aggr5.0" depart="12053.52" from="lane_entry_C" to="lane_exit_B" type="car_aggr5" /><trip id="r_luz_tun_aAl_eEr_3_small_truck.0" depart="13112.36" from="lane_entry_C" to="lane_exit_B" type="small_truck" /><trip id="r_luz_tun_aAl_eEr_3_motorbike.0" depart="13165.39" from="lane_entry_C" to="lane_exit_B" type="motorbike" /><trip id="r_luz_tun_aAl_eEr_3_car_aggr4.0" depart="13544.76" from="lane_entry_C" to="lane_exit_B" type="car_aggr4" /><trip id="r_luz_tun_aAl_eEr_3_motorbike.1" depart="13909.65" from="lane_entry_C" to="lane_exit_B" type="motorbike" /><trip id="r_alt_and_1_3_car_aggr3.0" depart="14056.23" from="lane_entry_C" to="lane_exit_D" type="car_aggr3" /><trip id="r_luz_tun_aAl_eEr_3_car_aggr2.0" depart="14354.37" from="lane_entry_C" to="lane_exit_B" type="car_aggr2" /><trip id="r_luz_tun_aAl_eEr_3_car_aggr5.0" depart="14804.72" from="lane_entry_C" to="lane_exit_B" type="car_aggr5" /><trip id="r_luz_tun_aAl_eEr_3_motorbike.2" depart="15361.47" from="lane_entry_C" to="lane_exit_B" type="motorbike" /><trip id="r_luz_tun_aAl_eEr_4_car_aggr2.0" depart="15743.5" from="lane_entry_C" to="lane_exit_B" type="car_aggr2" /><trip id="r_and_alt_1_4_small_truck.0" depart="17517.56" from="lane_entry_D" to="lane_exit_C" type="small_truck" /><trip id="r_luz_tun_aAl_eEr_5_car_aggr5.0" depart="19480.13" from="lane_entry_C" to="lane_exit_B" type="car_aggr5" /><trip id="r_luz_tun_aAl_eEr_5_car_aggr3.0" depart="19503.78" from="lane_entry_C" to="lane_exit_B" type="car_aggr3" /><trip id="r_and_alt_1_4_car_aggr1.0" depart="19727.06" from="lane_entry_D" to="lane_exit_C" type="car_aggr1" /><trip id="r_and_alt_1_4_small_truck.1" depart="19730.51" from="lane_entry_D" to="lane_exit_C" type="small_truck" /><trip id="r_luz_tun_aAl_eEr_5_car_aggr5.1" depart="19895.77" from="lane_entry_C" to="lane_exit_B" type="car_aggr5" /><trip id="r_luz_tun_aAl_eEr_5_car_aggr3.1" depart="19900.56" from="lane_entry_C" to="lane_exit_B" type="car_aggr3" /><trip id="r_luz_tun_aAl_eEr_5_car_aggr3.2" depart="19905.17" from="lane_entry_C" to="lane_exit_B" type="car_aggr3" /><trip id="r_luz_tun_aAl_eEr_5_car_aggr3.3" depart="20244.33" from="lane_entry_C" to="lane_exit_B" type="car_aggr3" /><trip id="r_luz_tun_aAl_eEr_5_car_aggr4.0" depart="20248.51" from="lane_entry_C" to="lane_exit_B" type="car_aggr4" /><trip id="r_alt_and_1_5_big_truck.0" depart="20440.64" from="lane_entry_C" to="lane_exit_D" type="big_truck" /><trip id="r_luz_tun_aAl_eEr_5_car_aggr3.4" depart="20698.29" from="lane_entry_C" to="lane_exit_B" type="car_aggr3" /><trip id="r_luz_tun_aAl_eEr_5_car_aggr3.5" depart="21226.98" from="lane_entry_C" to="lane_exit_B" type="car_aggr3" /><trip id="r_alt_and_1_5_car_aggr2.0" depart="21321.94" from="lane_entry_C" to="lane_exit_D" type="car_aggr2" /><trip id="r_luz_oba_KS_____5_car_aggr4.0" depart="21518.19" from="lane_entry_C" to="lane_exit_D" type="car_aggr4" /><trip id="r_alt_and_1_5_car_aggr3.0" depart="21569.58" from="lane_entry_C" to="lane_exit_D" type="car_aggr3" /><trip id="r_luz_oba_KS_____5_car_aggr3.0" depart="22613.26" from="lane_entry_C" to="lane_exit_D" type="car_aggr3" /><trip id="r_luz_tun_aAl_eEr_6_car_aggr4.0" depart="23055.23" from="lane_entry_C" to="lane_exit_B" type="car_aggr4" /><trip id="r_luz_tun_aAl_eEr_6_car_aggr1.0" depart="23185.65" from="lane_entry_C" to="lane_exit_B" type="car_aggr1" /><trip id="r_luz_tun_aAl_eEr_6_car_aggr1.1" depart="23347.39" from="lane_entry_C" to="lane_exit_B" type="car_aggr1" /><trip id="r_luz_tun_aAl_eEr_6_car_aggr5.0" depart="23350.75" from="lane_entry_C" to="lane_exit_B" type="car_aggr5" /><trip id="r_luz_tun_aEr_eAm_6_car_aggr3.0" depart="23628.85" from="lane_entry_A" to="lane_exit_D" type="car_aggr3" /><trip id="r_luz_tun_aAl_eEr_6_car_aggr2.0" depart="23679.6" from="lane_entry_C" to="lane_exit_B" type="car_aggr2" /><trip id="r_luz_tun_aAl_eEr_6_car_aggr3.0" depart="23684.04" from="lane_entry_C" to="lane_exit_B" type="car_aggr3" /><trip id="r_luz_tun_aAl_eEr_6_small_truck.0" depart="23688.28" from="lane_entry_C" to="lane_exit_B" type="small_truck" /><trip id="r_luz_tun_aEr_eAm_6_car_aggr3.2" depart="23689.62" from="lane_entry_A" to="lane_exit_D" type="car_aggr3" /><trip id="r_luz_tun_aAl_eEr_6_car_aggr3.1" depart="23693.26" from="lane_entry_C" to="lane_exit_B" type="car_aggr3" /><trip id="r_luz_tun_aAl_eEr_6_car_aggr4.1" depart="23697.62" from="lane_entry_C" to="lane_exit_B" type="car_aggr4" /><trip id="r_luz_tun_aAl_eEr_6_car_aggr4.2" depart="23701.87" from="lane_entry_C" to="lane_exit_B" type="car_aggr4" /><trip id="r_luz_tun_aEr_eAm_6_car_aggr3.1" depart="23704.74" from="lane_entry_A" to="lane_exit_D" type="car_aggr3" /><trip id="r_luz_tun_aAl_eEr_6_car_aggr4.3" depart="23753.94" from="lane_entry_C" to="lane_exit_B" type="car_aggr4" /><trip id="r_luz_tun_aAl_eEr_6_motorbike.0" depart="23802.88" from="lane_entry_C" to="lane_exit_B" type="motorbike" /><trip id="r_luz_tun_aAl_eEr_6_car_aggr5.1" depart="23863.05" from="lane_entry_C" to="lane_exit_B" type="car_aggr5" /><trip id="r_luz_tun_aAl_eEr_6_car_aggr3.2" depart="23954.5" from="lane_entry_C" to="lane_exit_B" type="car_aggr3" /><trip id="r_luz_tun_aAl_eEr_6_car_aggr3.3" depart="24246.05" from="lane_entry_C" to="lane_exit_B" type="car_aggr3" /><trip id="r_luz_tun_aAl_eEr_6_car_aggr4.4" depart="24279.42" from="lane_entry_C" to="lane_exit_B" type="car_aggr4" /><trip id="r_axs_tun_aEr_eAm_6_car_aggr4.0" depart="24343.54" from="lane_entry_A" to="lane_exit_D" type="car_aggr4" /><trip id="r_luz_tun_aAl_eEr_6_car_aggr3.4" depart="24395.79" from="lane_entry_C" to="lane_exit_B" type="car_aggr3" /><trip id="r_luz_tun_aAl_eEr_6_car_aggr3.5" depart="24403.19" from="lane_entry_C" to="lane_exit_B" type="car_aggr3" /><trip id="r_luz_tun_aAl_eEr_6_car_aggr3.6" depart="24481.96" from="lane_entry_C" to="lane_exit_B" type="car_aggr3" /><trip id="r_luz_tun_aEr_eAm_6_car_aggr2.0" depart="24544.06" from="lane_entry_A" to="lane_exit_D" type="car_aggr2" /><trip id="r_luz_tun_aEr_eAm_6_car_aggr3.3" depart="24605.85" from="lane_entry_A" to="lane_exit_D" type="car_aggr3" /><trip id="r_luz_tun_aAl_eEr_6_car_aggr4.5" depart="24608.33" from="lane_entry_C" to="lane_exit_B" type="car_aggr4" /><trip id="r_luz_tun_aEr_eAm_6_car_aggr4.0" depart="24665.65" from="lane_entry_A" to="lane_exit_D" type="car_aggr4" /><trip id="r_luz_tun_aAl_eEr_6_car_aggr2.1" depart="24787.96" from="lane_entry_C" to="lane_exit_B" type="car_aggr2" /><trip id="r_axs_tun_aEr_eAm_6_car_aggr5.0" depart="24968.12" from="lane_entry_A" to="lane_exit_D" type="car_aggr5" /><trip id="r_luz_tun_aAl_eEr_6_small_truck.1" depart="25132.32" from="lane_entry_C" to="lane_exit_B" type="small_truck" /><trip id="r_luz_tun_aAl_eEr_6_car_aggr5.2" depart="25135.71" from="lane_entry_C" to="lane_exit_B" type="car_aggr5" /><trip id="r_luz_tun_aAl_eEr_6_car_aggr2.2" depart="25347.05" from="lane_entry_C" to="lane_exit_B" type="car_aggr2" /><trip id="r_luz_tun_aAl_eEr_6_car_aggr5.3" depart="25350.21" from="lane_entry_C" to="lane_exit_B" type="car_aggr5" /><trip id="r_luz_tun_aEr_eAm_6_car_aggr3.4" depart="25823.23" from="lane_entry_A" to="lane_exit_D" type="car_aggr3" /><trip id="r_luz_tun_aAl_eEr_6_car_aggr2.3" depart="25865.77" from="lane_entry_C" to="lane_exit_B" type="car_aggr2" /><trip id="r_axs_tun_aEr_eAm_6_car_aggr3.0" depart="25908.5" from="lane_entry_A" to="lane_exit_D" type="car_aggr3" /><trip id="r_luz_tun_aAl_eEr_6_small_truck.2" depart="25909.88" from="lane_entry_C" to="lane_exit_B" type="small_truck" /><trip id="r_luz_tun_aAl_eEr_6_car_aggr3.7" depart="25923.84" from="lane_entry_C" to="lane_exit_B" type="car_aggr3" /><trip id="r_luz_tun_aAl_eEr_6_car_aggr4.6" depart="26031.71" from="lane_entry_C" to="lane_exit_B" type="car_aggr4" /><trip id="r_luz_tun_aAl_eEr_6_car_aggr1.2" depart="26107.26" from="lane_entry_C" to="lane_exit_B" type="car_aggr1" /><trip id="r_luz_tun_aAl_eEr_6_car_aggr2.4" depart="26112.87" from="lane_entry_C" to="lane_exit_B" type="car_aggr2" /><trip id="r_luz_tun_aAl_eEr_6_car_aggr4.7" depart="26157.59" from="lane_entry_C" to="lane_exit_B" type="car_aggr4" /><trip id="r_luz_tun_aEr_eAm_6_car_aggr3.5" depart="26219.44" from="lane_entry_A" to="lane_exit_D" type="car_aggr3" /><trip id="r_axs_tun_aEr_eAm_6_small_truck.0" depart="26263.92" from="lane_entry_A" to="lane_exit_D" type="small_truck" /><trip id="r_luz_tun_aAl_eEr_6_car_aggr2.5" depart="26332.81" from="lane_entry_C" to="lane_exit_B" type="car_aggr2" /><trip id="r_luz_tun_aAl_eEr_6_car_aggr5.4" depart="26336.15" from="lane_entry_C" to="lane_exit_B" type="car_aggr5" /><trip id="r_luz_tun_aAl_eEr_6_car_aggr3.8" depart="26341.23" from="lane_entry_C" to="lane_exit_B" type="car_aggr3" /><trip id="r_luz_tun_aAl_eEr_6_car_aggr2.6" depart="26516.12" from="lane_entry_C" to="lane_exit_B" type="car_aggr2" /><trip id="r_luz_tun_aAl_eEr_6_small_truck.3" depart="26623.6" from="lane_entry_C" to="lane_exit_B" type="small_truck" /><trip id="r_luz_tun_aAl_eEr_7_car_aggr4.0" depart="26627.5" from="lane_entry_C" to="lane_exit_B" type="car_aggr4" /><trip id="r_luz_tun_aEr_eAm_7_car_aggr2.0" depart="26684.54" from="lane_entry_A" to="lane_exit_D" type="car_aggr2" /><trip id="r_luz_tun_aAl_eEr_7_car_aggr2.0" depart="26696.5" from="lane_entry_C" to="lane_exit_B" type="car_aggr2" /><trip id="r_luz_tun_aEr_eAm_7_car_aggr4.0" depart="26719.6" from="lane_entry_A" to="lane_exit_D" type="car_aggr4" /><trip id="r_luz_tun_aEr_eAm_7_car_aggr3.0" depart="26738.4" from="lane_entry_A" to="lane_exit_D" type="car_aggr3" /><trip id="r_luz_tun_aAl_eEr_7_car_aggr3.0" depart="26769.05" from="lane_entry_C" to="lane_exit_B" type="car_aggr3" /><trip id="r_luz_tun_aEr_eAm_7_car_aggr4.1" depart="26772.38" from="lane_entry_A" to="lane_exit_D" type="car_aggr4" /><trip id="r_luz_tun_aEr_eAm_7_car_aggr4.2" depart="26777.79" from="lane_entry_A" to="lane_exit_D" type="car_aggr4" /><trip id="r_luz_tun_aEr_eAm_7_car_aggr5.0" depart="26781.0" from="lane_entry_A" to="lane_exit_D" type="car_aggr5" /><trip id="r_luz_tun_aAl_eEr_7_big_truck.0" depart="26805.67" from="lane_entry_C" to="lane_exit_B" type="big_truck" /><trip id="r_luz_tun_aEr_eAm_7_car_aggr3.1" depart="26944.7" from="lane_entry_A" to="lane_exit_D" type="car_aggr3" /><trip id="r_luz_tun_aAl_eEr_7_car_aggr1.0" depart="27005.44" from="lane_entry_C" to="lane_exit_B" type="car_aggr1" /><trip id="r_luz_tun_aAl_eEr_7_car_aggr3.1" depart="27014.17" from="lane_entry_C" to="lane_exit_B" type="car_aggr3" /><trip id="r_luz_tun_aAl_eEr_7_car_aggr5.0" depart="27017.56" from="lane_entry_C" to="lane_exit_B" type="car_aggr5" /><trip id="r_luz_tun_aAl_eEr_7_car_aggr4.1" depart="27021.76" from="lane_entry_C" to="lane_exit_B" type="car_aggr4" /><trip id="r_alt_and_1_7_car_aggr4.0" depart="27025.88" from="lane_entry_C" to="lane_exit_D" type="car_aggr4" /><trip id="r_and_alt_1_7_car_aggr3.0" depart="27048.21" from="lane_entry_D" to="lane_exit_C" type="car_aggr3" /><trip id="r_and_alt_1_7_car_aggr3.1" depart="27052.25" from="lane_entry_D" to="lane_exit_C" type="car_aggr3" /><trip id="r_axs_tun_aEr_eAm_6_car_aggr5.1" depart="27088.15" from="lane_entry_A" to="lane_exit_D" type="car_aggr5" /><trip id="r_luz_tun_aAl_eEr_7_car_aggr2.1" depart="27134.54" from="lane_entry_C" to="lane_exit_B" type="car_aggr2" /><trip id="r_luz_tun_aAl_eEr_7_car_aggr3.2" depart="27139.04" from="lane_entry_C" to="lane_exit_B" type="car_aggr3" /><trip id="r_luz_tun_aAl_eEr_7_car_aggr5.1" depart="27142.48" from="lane_entry_C" to="lane_exit_B" type="car_aggr5" /><trip id="r_luz_tun_aAl_eEr_7_car_aggr2.2" depart="27149.36" from="lane_entry_C" to="lane_exit_B" type="car_aggr2" /><trip id="r_luz_tun_aEr_eAm_7_car_aggr3.2" depart="27175.47" from="lane_entry_A" to="lane_exit_D" type="car_aggr3" /><trip id="r_luz_tun_aAl_eEr_7_big_truck.1" depart="27198.91" from="lane_entry_C" to="lane_exit_B" type="big_truck" /><trip id="r_luz_tun_aAl_eEr_7_car_aggr5.2" depart="27202.79" from="lane_entry_C" to="lane_exit_B" type="car_aggr5" /><trip id="r_luz_tun_aAl_eEr_7_car_aggr3.3" depart="27207.95" from="lane_entry_C" to="lane_exit_B" type="car_aggr3" /><trip id="r_and_alt_1_7_car_aggr3.2" depart="27214.94" from="lane_entry_D" to="lane_exit_C" type="car_aggr3" /><trip id="r_luz_tun_aAl_eEr_7_big_truck.2" depart="27286.02" from="lane_entry_C" to="lane_exit_B" type="big_truck" /><trip id="r_luz_tun_aAl_eEr_7_car_aggr3.4" depart="27291.01" from="lane_entry_C" to="lane_exit_B" type="car_aggr3" /><trip id="r_luz_tun_aAl_eEr_7_small_truck.0" depart="27320.17" from="lane_entry_C" to="lane_exit_B" type="small_truck" /><trip id="r_luz_tun_aAl_eEr_7_car_aggr2.4" depart="27335.62" from="lane_entry_C" to="lane_exit_B" type="car_aggr2" /><trip id="r_luz_tun_aAl_eEr_7_car_aggr5.3" depart="27358.05" from="lane_entry_C" to="lane_exit_B" type="car_aggr5" /><trip id="r_luz_tun_aAl_eEr_7_car_aggr3.5" depart="27362.97" from="lane_entry_C" to="lane_exit_B" type="car_aggr3" /><trip id="r_and_alt_1_7_car_aggr4.0" depart="27372.75" from="lane_entry_D" to="lane_exit_C" type="car_aggr4" /><trip id="r_luz_tun_aAl_eEr_7_car_aggr2.3" depart="27448.16" from="lane_entry_C" to="lane_exit_B" type="car_aggr2" /><trip id="r_luz_tun_aAl_eEr_7_car_aggr4.2" depart="27451.99" from="lane_entry_C" to="lane_exit_B" type="car_aggr4" /><trip id="r_luz_tun_aEr_eAm_7_big_truck.0" depart="27467.28" from="lane_entry_A" to="lane_exit_D" type="big_truck" /><trip id="r_luz_tun_aEr_eAm_7_car_aggr1.0" depart="27481.1" from="lane_entry_A" to="lane_exit_D" type="car_aggr1" /><trip id="r_luz_tun_aAl_eEr_7_car_aggr1.1" depart="27487.25" from="lane_entry_C" to="lane_exit_B" type="car_aggr1" /><trip id="r_luz_tun_aAl_eEr_7_car_aggr2.5" depart="27492.84" from="lane_entry_C" to="lane_exit_B" type="car_aggr2" /><trip id="r_luz_tun_aEr_eAm_7_small_truck.0" depart="27493.24" from="lane_entry_A" to="lane_exit_D" type="small_truck" /><trip id="r_luz_tun_aAl_eEr_7_car_aggr2.6" depart="27499.07" from="lane_entry_C" to="lane_exit_B" type="car_aggr2" /><trip id="r_luz_tun_aEr_eAm_7_car_aggr3.3" depart="27526.29" from="lane_entry_A" to="lane_exit_D" type="car_aggr3" /><trip id="r_luz_tun_aAl_eEr_7_car_aggr2.7" depart="27543.89" from="lane_entry_C" to="lane_exit_B" type="car_aggr2" /><trip id="r_luz_tun_aEr_eAm_7_small_truck.1" depart="27556.01" from="lane_entry_A" to="lane_exit_D" type="small_truck" /><trip id="r_axs_tun_aEr_eAm_7_car_aggr3.0" depart="27629.78" from="lane_entry_A" to="lane_exit_D" type="car_aggr3" /><trip id="r_luz_tun_aEr_eAm_7_car_aggr3.4" depart="27649.94" from="lane_entry_A" to="lane_exit_D" type="car_aggr3" /><trip id="r_axs_tun_aEr_eAm_7_car_aggr4.0" depart="27701.47" from="lane_entry_A" to="lane_exit_D" type="car_aggr4" /><trip id="r_luz_tun_aEr_eAm_7_car_aggr3.5" depart="27720.03" from="lane_entry_A" to="lane_exit_D" type="car_aggr3" /><trip id="r_luz_tun_aAl_eEr_7_car_aggr1.2" depart="27724.01" from="lane_entry_C" to="lane_exit_B" type="car_aggr1" /><trip id="r_luz_tun_aAl_eEr_7_car_aggr3.6" depart="27728.46" from="lane_entry_C" to="lane_exit_B" type="car_aggr3" /><trip id="r_luz_tun_aAl_eEr_7_small_truck.1" depart="27732.64" from="lane_entry_C" to="lane_exit_B" type="small_truck" /><trip id="r_luz_tun_aAl_eEr_7_car_aggr3.7" depart="27737.87" from="lane_entry_C" to="lane_exit_B" type="car_aggr3" /><trip id="r_luz_tun_aEr_eAm_7_small_truck.2" depart="27813.87" from="lane_entry_A" to="lane_exit_D" type="small_truck" /><trip id="r_axs_tun_aEr_eAm_7_car_aggr2.0" depart="27834.41" from="lane_entry_A" to="lane_exit_D" type="car_aggr2" /><trip id="r_luz_tun_aAl_eEr_7_big_truck.3" depart="27881.94" from="lane_entry_C" to="lane_exit_B" type="big_truck" /><trip id="r_luz_tun_aAl_eEr_7_car_aggr4.3" depart="27886.41" from="lane_entry_C" to="lane_exit_B" type="car_aggr4" /><trip id="r_luz_tun_aAl_eEr_7_car_aggr5.4" depart="27889.98" from="lane_entry_C" to="lane_exit_B" type="car_aggr5" /><trip id="r_luz_tun_aAl_eEr_7_car_aggr3.8" depart="27895.22" from="lane_entry_C" to="lane_exit_B" type="car_aggr3" /><trip id="r_axs_tun_aEr_eAm_7_small_truck.0" depart="27898.64" from="lane_entry_A" to="lane_exit_D" type="small_truck" /><trip id="r_luz_tun_aAl_eEr_7_car_aggr1.3" depart="27903.02" from="lane_entry_C" to="lane_exit_B" type="car_aggr1" /><trip id="r_luz_tun_aAl_eEr_7_small_truck.2" depart="27907.01" from="lane_entry_C" to="lane_exit_B" type="small_truck" /><trip id="r_axs_tun_aEr_eAm_7_car_aggr3.1" depart="27958.0" from="lane_entry_A" to="lane_exit_D" type="car_aggr3" /><trip id="r_luz_tun_aAl_eEr_7_car_aggr2.8" depart="27965.38" from="lane_entry_C" to="lane_exit_B" type="car_aggr2" /><trip id="r_luz_tun_aAl_eEr_7_car_aggr5.5" depart="27968.56" from="lane_entry_C" to="lane_exit_B" type="car_aggr5" /><trip id="r_luz_tun_aAl_eEr_7_car_aggr3.9" depart="27973.72" from="lane_entry_C" to="lane_exit_B" type="car_aggr3" /><trip id="r_axs_tun_aEr_eAm_7_motorbike.0" depart="28006.41" from="lane_entry_A" to="lane_exit_D" type="motorbike" /><trip id="r_axs_tun_aEr_eAm_7_car_aggr3.2" depart="28049.59" from="lane_entry_A" to="lane_exit_D" type="car_aggr3" /><trip id="r_luz_tun_aAl_eEr_7_car_aggr4.4" depart="28064.46" from="lane_entry_C" to="lane_exit_B" type="car_aggr4" /><trip id="r_luz_tun_aAl_eEr_7_car_aggr3.10" depart="28072.0" from="lane_entry_C" to="lane_exit_B" type="car_aggr3" /><trip id="r_luz_tun_aEr_eAm_7_car_aggr2.1" depart="28122.55" from="lane_entry_A" to="lane_exit_D" type="car_aggr2" /><trip id="r_luz_tun_aAl_eEr_7_car_aggr2.9" depart="28197.46" from="lane_entry_C" to="lane_exit_B" type="car_aggr2" /><trip id="r_luz_tun_aAl_eEr_7_car_aggr2.10" depart="28203.04" from="lane_entry_C" to="lane_exit_B" type="car_aggr2" /><trip id="r_luz_tun_aEr_eAm_7_car_aggr2.2" depart="28230.44" from="lane_entry_A" to="lane_exit_D" type="car_aggr2" /><trip id="r_luz_tun_aAl_eEr_7_car_aggr3.11" depart="28263.56" from="lane_entry_C" to="lane_exit_B" type="car_aggr3" /><trip id="r_luz_tun_aAl_eEr_7_car_aggr1.4" depart="28287.62" from="lane_entry_C" to="lane_exit_B" type="car_aggr1" /><trip id="r_luz_tun_aAl_eEr_7_small_truck.4" depart="28304.06" from="lane_entry_C" to="lane_exit_B" type="small_truck" /><trip id="r_axs_tun_aEr_eAm_7_car_aggr2.1" depart="28305.62" from="lane_entry_A" to="lane_exit_D" type="car_aggr2" /><trip id="r_and_alt_1_7_car_aggr3.3" depart="28322.91" from="lane_entry_D" to="lane_exit_C" type="car_aggr3" /><trip id="r_luz_tun_aAl_eEr_7_small_truck.3" depart="28363.17" from="lane_entry_C" to="lane_exit_B" type="small_truck" /><trip id="r_axs_tun_aEr_eAm_7_car_aggr4.1" depart="28363.71" from="lane_entry_A" to="lane_exit_D" type="car_aggr4" /><trip id="r_luz_tun_aAl_eEr_7_motorbike.0" depart="28367.3" from="lane_entry_C" to="lane_exit_B" type="motorbike" /><trip id="r_luz_tun_aAl_eEr_7_motorbike.1" depart="28387.39" from="lane_entry_C" to="lane_exit_B" type="motorbike" /><trip id="r_luz_tun_aAl_eEr_7_car_aggr2.11" depart="28446.58" from="lane_entry_C" to="lane_exit_B" type="car_aggr2" /><trip id="r_luz_tun_aEr_eAm_7_big_truck.1" depart="28449.96" from="lane_entry_A" to="lane_exit_D" type="big_truck" /><trip id="r_luz_tun_aAl_eEr_7_car_aggr4.6" depart="28521.7" from="lane_entry_C" to="lane_exit_B" type="car_aggr4" /><trip id="r_luz_tun_aEr_eAm_7_car_aggr4.3" depart="28536.77" from="lane_entry_A" to="lane_exit_D" type="car_aggr4" /><trip id="r_luz_tun_aEr_eAm_7_car_aggr4.4" depart="28541.38" from="lane_entry_A" to="lane_exit_D" type="car_aggr4" /><trip id="r_luz_tun_aAl_eEr_7_car_aggr4.5" depart="28576.86" from="lane_entry_C" to="lane_exit_B" type="car_aggr4" /><trip id="r_luz_tun_aEr_eAm_7_car_aggr3.6" depart="28600.78" from="lane_entry_A" to="lane_exit_D" type="car_aggr3" /><trip id="r_axs_tun_aEr_eAm_7_car_aggr4.2" depart="28615.99" from="lane_entry_A" to="lane_exit_D" type="car_aggr4" /><trip id="r_luz_tun_aAl_eEr_7_car_aggr1.5" depart="28617.54" from="lane_entry_C" to="lane_exit_B" type="car_aggr1" /><trip id="r_luz_tun_aAl_eEr_7_car_aggr3.12" depart="28621.87" from="lane_entry_C" to="lane_exit_B" type="car_aggr3" /><trip id="r_luz_tun_aEr_eAm_7_car_aggr1.1" depart="28643.76" from="lane_entry_A" to="lane_exit_D" type="car_aggr1" /><trip id="r_luz_tun_aAl_eEr_7_motorbike.2" depart="28694.87" from="lane_entry_C" to="lane_exit_B" type="motorbike" /><trip id="r_luz_tun_aEr_eAm_7_car_aggr3.7" depart="28751.29" from="lane_entry_A" to="lane_exit_D" type="car_aggr3" /><trip id="r_axs_tun_aEr_eAm_7_car_aggr2.2" depart="28828.84" from="lane_entry_A" to="lane_exit_D" type="car_aggr2" /><trip id="r_luz_tun_aEr_eAm_7_small_truck.3" depart="28839.44" from="lane_entry_A" to="lane_exit_D" type="small_truck" /><trip id="r_luz_tun_aAl_eEr_7_car_aggr3.13" depart="28879.11" from="lane_entry_C" to="lane_exit_B" type="car_aggr3" /><trip id="r_luz_tun_aAl_eEr_7_car_aggr2.12" depart="28889.76" from="lane_entry_C" to="lane_exit_B" type="car_aggr2" /><trip id="r_luz_tun_aAl_eEr_7_car_aggr1.6" depart="28916.07" from="lane_entry_C" to="lane_exit_B" type="car_aggr1" /><trip id="r_luz_tun_aAl_eEr_7_car_aggr3.14" depart="28920.53" from="lane_entry_C" to="lane_exit_B" type="car_aggr3" /><trip id="r_and_alt_1_7_car_aggr3.4" depart="28923.05" from="lane_entry_D" to="lane_exit_C" type="car_aggr3" /><trip id="r_luz_tun_aAl_eEr_7_big_truck.4" depart="28951.38" from="lane_entry_C" to="lane_exit_B" type="big_truck" /><trip id="r_luz_tun_aAl_eEr_7_car_aggr3.15" depart="28956.3" from="lane_entry_C" to="lane_exit_B" type="car_aggr3" /><trip id="r_luz_tun_aAl_eEr_7_car_aggr4.7" depart="28960.62" from="lane_entry_C" to="lane_exit_B" type="car_aggr4" /><trip id="r_luz_tun_aAl_eEr_7_car_aggr2.13" depart="28967.4" from="lane_entry_C" to="lane_exit_B" type="car_aggr2" /><trip id="r_luz_tun_aAl_eEr_7_car_aggr2.14" depart="28973.05" from="lane_entry_C" to="lane_exit_B" type="car_aggr2" /><trip id="r_luz_tun_aAl_eEr_7_car_aggr4.8" depart="28977.28" from="lane_entry_C" to="lane_exit_B" type="car_aggr4" /><trip id="r_luz_tun_aAl_eEr_7_car_aggr5.6" depart="28980.76" from="lane_entry_C" to="lane_exit_B" type="car_aggr5" /><trip id="r_luz_tun_aAl_eEr_7_car_aggr5.7" depart="28984.28" from="lane_entry_C" to="lane_exit_B" type="car_aggr5" /><trip id="r_luz_tun_aAl_eEr_7_car_aggr4.9" depart="28988.6" from="lane_entry_C" to="lane_exit_B" type="car_aggr4" /><trip id="r_luz_tun_aEr_eAm_7_car_aggr5.1" depart="29121.22" from="lane_entry_A" to="lane_exit_D" type="car_aggr5" /><trip id="r_axs_tun_aEr_eAm_7_car_aggr3.3" depart="29145.25" from="lane_entry_A" to="lane_exit_D" type="car_aggr3" /><trip id="r_axs_tun_aEr_eAm_7_car_aggr5.0" depart="29166.2" from="lane_entry_A" to="lane_exit_D" type="car_aggr5" /><trip id="r_axs_tun_aEr_eAm_7_car_aggr4.3" depart="29236.05" from="lane_entry_A" to="lane_exit_D" type="car_aggr4" /><trip id="r_axs_tun_aEr_eAm_7_car_aggr4.4" depart="29297.18" from="lane_entry_A" to="lane_exit_D" type="car_aggr4" /><trip id="r_luz_tun_aAl_eEr_7_car_aggr3.16" depart="29309.72" from="lane_entry_C" to="lane_exit_B" type="car_aggr3" /><trip id="r_luz_tun_aEr_eAm_7_car_aggr5.2" depart="29312.82" from="lane_entry_A" to="lane_exit_D" type="car_aggr5" /><trip id="r_luz_tun_aAl_eEr_7_car_aggr2.15" depart="29315.54" from="lane_entry_C" to="lane_exit_B" type="car_aggr2" /><trip id="r_luz_tun_aAl_eEr_7_car_aggr5.8" depart="29319.16" from="lane_entry_C" to="lane_exit_B" type="car_aggr5" /><trip id="r_luz_tun_aAl_eEr_7_car_aggr3.17" depart="29324.23" from="lane_entry_C" to="lane_exit_B" type="car_aggr3" /><trip id="r_luz_tun_aAl_eEr_7_car_aggr3.19" depart="29336.21" from="lane_entry_C" to="lane_exit_B" type="car_aggr3" /><trip id="r_luz_tun_aAl_eEr_7_motorbike.4" depart="29340.31" from="lane_entry_C" to="lane_exit_B" type="motorbike" /><trip id="r_luz_tun_aEr_eAm_7_small_truck.4" depart="29351.88" from="lane_entry_A" to="lane_exit_D" type="small_truck" /><trip id="r_alt_and_1_8_car_aggr3.0" depart="29353.06" from="lane_entry_C" to="lane_exit_D" type="car_aggr3" /><trip id="r_luz_tun_aAl_eEr_7_motorbike.3" depart="29384.15" from="lane_entry_C" to="lane_exit_B" type="motorbike" /><trip id="r_luz_tun_aAl_eEr_7_car_aggr3.20" depart="29388.66" from="lane_entry_C" to="lane_exit_B" type="car_aggr3" /><trip id="r_luz_tun_aAl_eEr_7_car_aggr3.21" depart="29394.03" from="lane_entry_C" to="lane_exit_B" type="car_aggr3" /><trip id="r_luz_tun_aEr_eAm_7_car_aggr2.3" depart="29399.81" from="lane_entry_A" to="lane_exit_D" type="car_aggr2" /><trip id="r_axs_tun_aEr_eAm_7_car_aggr3.4" depart="29484.79" from="lane_entry_A" to="lane_exit_D" type="car_aggr3" /><trip id="r_luz_tun_aAl_eEr_7_car_aggr2.16" depart="29488.52" from="lane_entry_C" to="lane_exit_B" type="car_aggr2" /><trip id="r_axs_tun_aEr_eAm_7_car_aggr1.0" depart="29521.34" from="lane_entry_A" to="lane_exit_D" type="car_aggr1" /><trip id="r_luz_tun_aAl_eEr_7_car_aggr2.17" depart="29530.49" from="lane_entry_C" to="lane_exit_B" type="car_aggr2" /><trip id="r_luz_tun_aAl_eEr_7_car_aggr3.22" depart="29549.04" from="lane_entry_C" to="lane_exit_B" type="car_aggr3" /><trip id="r_luz_tun_aAl_eEr_7_car_aggr4.10" depart="29552.87" from="lane_entry_C" to="lane_exit_B" type="car_aggr4" /><trip id="r_luz_tun_aAl_eEr_7_motorbike.5" depart="29556.86" from="lane_entry_C" to="lane_exit_B" type="motorbike" /><trip id="r_and_alt_1_7_motorbike.0" depart="29560.16" from="lane_entry_D" to="lane_exit_C" type="motorbike" /><trip id="r_luz_tun_aAl_eEr_7_car_aggr3.24" depart="29561.78" from="lane_entry_C" to="lane_exit_B" type="car_aggr3" /><trip id="r_and_alt_1_7_car_aggr3.5" depart="29585.54" from="lane_entry_D" to="lane_exit_C" type="car_aggr3" /><trip id="r_luz_tun_aEr_eAm_7_car_aggr5.3" depart="29589.3" from="lane_entry_A" to="lane_exit_D" type="car_aggr5" /><trip id="r_luz_tun_aEr_eAm_7_car_aggr3.8" depart="29597.3" from="lane_entry_A" to="lane_exit_D" type="car_aggr3" /><trip id="r_axs_tun_aEr_eAm_7_motorbike.1" depart="29601.97" from="lane_entry_A" to="lane_exit_D" type="motorbike" /><trip id="r_alt_and_1_8_car_aggr2.0" depart="29619.5" from="lane_entry_C" to="lane_exit_D" type="car_aggr2" /><trip id="r_axs_tun_aEr_eAm_7_motorbike.2" depart="29661.35" from="lane_entry_A" to="lane_exit_D" type="motorbike" /><trip id="r_axs_tun_aEr_eAm_7_car_aggr3.5" depart="29676.41" from="lane_entry_A" to="lane_exit_D" type="car_aggr3" /><trip id="r_alt_and_1_8_car_aggr4.0" depart="29718.74" from="lane_entry_C" to="lane_exit_D" type="car_aggr4" /><trip id="r_axs_tun_aEr_eAm_7_car_aggr3.6" depart="29757.33" from="lane_entry_A" to="lane_exit_D" type="car_aggr3" /><trip id="r_luz_tun_aEr_eAm_7_small_truck.5" depart="29796.25" from="lane_entry_A" to="lane_exit_D" type="small_truck" /><trip id="r_luz_tun_aAl_eEr_7_car_aggr3.18" depart="29808.08" from="lane_entry_C" to="lane_exit_B" type="car_aggr3" /><trip id="r_luz_tun_aAl_eEr_7_big_truck.5" depart="29813.09" from="lane_entry_C" to="lane_exit_B" type="big_truck" /><trip id="r_luz_tun_aAl_eEr_7_small_truck.5" depart="29817.83" from="lane_entry_C" to="lane_exit_B" type="small_truck" /><trip id="r_luz_tun_aAl_eEr_7_car_aggr3.25" depart="29822.92" from="lane_entry_C" to="lane_exit_B" type="car_aggr3" /><trip id="r_luz_tun_aAl_eEr_7_car_aggr5.9" depart="29826.87" from="lane_entry_C" to="lane_exit_B" type="car_aggr5" /><trip id="r_luz_tun_aAl_eEr_7_motorbike.6" depart="29831.24" from="lane_entry_C" 