<?xml version="1.0" encoding="UTF-8"?>

<!-- generated on 2025-05-13 10:57:02 by Eclipse SUMO sumo Version 1.22.0
-->

<sumoConfiguration xmlns:xsi="http://www.w3.org/2001/XMLSchema-instance" xsi:noNamespaceSchemaLocation="http://sumo.dlr.de/xsd/sumoConfiguration.xsd">

    <input>
        <net-file value="gurtnellen_osm.net.xml"/>
        <route-files value="05_17_routes_gurtnellen.rou.xml"/>
        <additional-files value="sumo_in_out_points.add.xml"/>
    </input>

</sumoConfiguration>
