<?xml version="1.0" encoding="UTF-8"?>

<!-- generated on 2025-05-20 13:46:23 by Eclipse SUMO duarouter Version 1.22.0
<duarouterConfiguration xmlns:xsi="http://www.w3.org/2001/XMLSchema-instance" xsi:noNamespaceSchemaLocation="http://sumo.dlr.de/xsd/duarouterConfiguration.xsd">

    <input>
        <net-file value="../simulation/villages/Gurtnellen/gurtnellen_osm.net.xml"/>
        <additional-files value="data/vehicle_types_new.xml"/>
        <route-files value="output/reconstructed_trips_gurtnellen.trips.xml"/>
    </input>

    <output>
        <output-file value="output/20_11_routes_gurtnellen.rou.xml"/>
    </output>

</duarouterConfiguration>
-->

<routes xmlns:xsi="http://www.w3.org/2001/XMLSchema-instance" xsi:noNamespaceSchemaLocation="http://sumo.dlr.de/xsd/routes_file.xsd">
    <vType id="car_aggr4" maxSpeed="40.00" speedFactor="normc(0.95,0.12,0.20,2.00)" vClass="passenger" impatience="3.50" minGapLat="0.40" lcStrategic="15" lcCooperative="0.1" lcSpeedGain="10.0" lcKeepRight="0.2" lcSublane="5.0" lcPushy="2.6" lcPushyGap="0.2" lcAssertive="4.2" lcImpatience="2.5" lcTimeToImpatience="6" lcSigma="1.0" accel="2.8" decel="6.0" tau="3.0">
        <param key="laneChangeModel" value="SL2015"/>
    </vType>
    <vehicle id="r_axs_tun_aEr_eGo_1_car_aggr4.0" type="car_aggr4" depart="5312.56">
        <route edges="lane_entry_A 33527181#10.27 33527181#10.55 1235288594 846325019#0 846325019#1 846325019#2 846325019#3 1227368393#0 1227368393#1 1235288599 846325020#1 846325020#2 1235288621 1081634444 1235288620 1227368394 1081634439#1 1081634439#2 1235288632 1235288634 lane_exit_speed_B lane_exit_B"/>
    </vehicle>
    <vType id="car_aggr3" maxSpeed="40.00" speedFactor="normc(0.90,0.10,0.20,2.00)" vClass="passenger" impatience="3.00" minGapLat="0.50" lcStrategic="25" lcCooperative="0.2" lcSpeedGain="9.0" lcKeepRight="0.3" lcSublane="4.0" lcPushy="2.2" lcPushyGap="0.3" lcAssertive="3.5" lcImpatience="2.0" lcTimeToImpatience="9" lcSigma="0.8" accel="2.5" decel="5.0" tau="3.5">
        <param key="laneChangeModel" value="SL2015"/>
    </vType>
    <vehicle id="r_luz_tun_aAm_eGo_1_car_aggr3.0" type="car_aggr3" depart="7463.51">
        <route edges="lane_entry_A 33527181#10.27 33527181#10.55 1235288594 846325019#0 846325019#1 846325019#2 846325019#3 1227368393#0 1227368393#1 1235288599 846325020#1 846325020#2 1235288621 1081634444 1235288620 1227368394 1081634439#1 1081634439#2 1235288632 1235288634 lane_exit_speed_B lane_exit_B"/>
    </vehicle>
    <vType id="big_truck" length="12.00" maxSpeed="22.00" speedFactor="normc(0.75,0.04,0.20,2.00)" vClass="truck" impatience="1.80" minGapLat="0.80" lcStrategic="200" lcCooperative="0.1" lcSpeedGain="4.0" lcKeepRight="0.8" lcSublane="1.5" lcPushy="1.2" lcPushyGap="0.3" lcAssertive="2.5" lcImpatience="1.5" lcTimeToImpatience="10" lcSigma="0.4" accel="1.4" decel="3.2" tau="3.5">
        <param key="laneChangeModel" value="SL2015"/>
    </vType>
    <vehicle id="r_luz_tun_aAm_eGo_1_big_truck.0" type="big_truck" depart="7601.60">
        <route edges="lane_entry_A 33527181#10.27 33527181#10.55 1235288594 846325019#0 846325019#1 846325019#2 846325019#3 1227368393#0 1227368393#1 1235288599 846325020#1 846325020#2 1235288621 1081634444 1235288620 1227368394 1081634439#1 1081634439#2 1235288632 1235288634 lane_exit_speed_B lane_exit_B"/>
    </vehicle>
    <vehicle id="r_axs_tun_aEr_eGo_1_car_aggr3.0" type="car_aggr3" depart="8612.20">
        <route edges="lane_entry_A 33527181#10.27 33527181#10.55 1235288594 846325019#0 846325019#1 846325019#2 846325019#3 1227368393#0 1227368393#1 1235288599 846325020#1 846325020#2 1235288621 1081634444 1235288620 1227368394 1081634439#1 1081634439#2 1235288632 1235288634 lane_exit_speed_B lane_exit_B"/>
    </vehicle>
    <vType id="small_truck" length="6.50" maxSpeed="28.00" speedFactor="normc(0.85,0.05,0.20,2.00)" vClass="delivery" impatience="2.50" minGapLat="0.60" lcStrategic="35" lcCooperative="0.3" lcSpeedGain="6.0" lcKeepRight="0.4" lcSublane="2.0" lcPushy="1.8" lcPushyGap="0.4" lcAssertive="2.5" lcImpatience="1.8" lcTimeToImpatience="10" lcSigma="0.5" accel="2.2" decel="4.0" tau="2.8">
        <param key="laneChangeModel" value="SL2015"/>
    </vType>
    <vehicle id="r_axs_tun_aEr_eGo_1_small_truck.0" type="small_truck" depart="8834.39">
        <route edges="lane_entry_A 33527181#10.27 33527181#10.55 1235288594 846325019#0 846325019#1 846325019#2 846325019#3 1227368393#0 1227368393#1 1235288599 846325020#1 846325020#2 1235288621 1081634444 1235288620 1227368394 1081634439#1 1081634439#2 1235288632 1235288634 lane_exit_speed_B lane_exit_B"/>
    </vehicle>
    <vehicle id="r_and_alt_1_2_car_aggr4.0" type="car_aggr4" depart="9470.31">
        <route edges="lane_entry_B -1235288634.27 -12352886340 -1235288632 -1235288631 -1081634439#1 -1081634439#0 -1235288620 -1081634444 -1235288624 -846325020#2 -846325020#1 -846325020#0 -1227368393#1 -1227368393#0 -846325019#3 -846325019#2 -846325019#1 -846325019#0 -1235288594 -33527181#1 lane_exit_speed_A lane_exit_A"/>
    </vehicle>
    <vType id="car_aggr2" maxSpeed="35.00" speedFactor="normc(0.85,0.09,0.20,2.00)" vClass="passenger" impatience="2.50" minGapLat="0.60" lcStrategic="40" lcCooperative="0.3" lcSpeedGain="8.0" lcKeepRight="0.5" lcSublane="3.0" lcPushy="1.8" lcPushyGap="0.4" lcAssertive="2.8" lcImpatience="1.5" lcTimeToImpatience="12" lcSigma="0.6" accel="2.2" decel="4.0" tau="4.5">
        <param key="laneChangeModel" value="SL2015"/>
    </vType>
    <vehicle id="r_was_ams_3_car_aggr2.0" type="car_aggr2" depart="11259.24">
        <route edges="lane_entry_B -1235288634.27 -12352886340 -1235288632 -1235288631 -1081634439#1 -1081634439#0 -1235288620 -1081634444 -1235288624 -846325020#2 -846325020#1 -846325020#0 -1227368393#1 -1227368393#0 -846325019#3 -846325019#2 -846325019#1 -846325019#0 -1235288594 -33527181#1 lane_exit_speed_A lane_exit_A"/>
    </vehicle>
    <vType id="car_aggr5" maxSpeed="45.00" speedFactor="normc(1.00,0.15,0.20,2.00)" vClass="passenger" impatience="4.00" minGapLat="0.30" lcStrategic="5" lcCooperative="0.0" lcSpeedGain="11.0" lcKeepRight="0.0" lcSublane="6.0" lcPushy="3.0" lcPushyGap="0.1" lcAssertive="5.0" lcImpatience="3.0" lcTimeToImpatience="3" lcSigma="1.2" accel="3.0" decel="8.0" tau="2.5">
        <param key="laneChangeModel" value="SL2015"/>
    </vType>
    <vehicle id="r_axs_tun_aEr_eWa_2_car_aggr5.0" type="car_aggr5" depart="11864.44">
        <route edges="lane_entry_A 33527181#10.27 33527181#10.55 1235288594 846325019#0 846325019#1 846325019#2 846325019#3 1227368393#0 1227368393#1 1235288599 846325020#1 846325020#2 1235288621 1081634444 1235288620 1227368394 1081634439#1 1081634439#2 1235288632 1235288634 lane_exit_speed_B lane_exit_B"/>
    </vehicle>
    <vehicle id="r_tun_axs_KS_____3_car_aggr2.0" type="car_aggr2" depart="12982.98">
        <route edges="lane_entry_B -1235288634.27 -12352886340 -1235288632 -1235288631 -1081634439#1 -1081634439#0 -1235288620 -1081634444 -1235288624 -846325020#2 -846325020#1 -846325020#0 -1227368393#1 -1227368393#0 -846325019#3 -846325019#2 -846325019#1 -846325019#0 -1235288594 -33527181#1 lane_exit_speed_A lane_exit_A"/>
    </vehicle>
    <vehicle id="r_tun_axs_KS_____3_car_aggr3.0" type="car_aggr3" depart="13439.63">
        <route edges="lane_entry_B -1235288634.27 -12352886340 -1235288632 -1235288631 -1081634439#1 -1081634439#0 -1235288620 -1081634444 -1235288624 -846325020#2 -846325020#1 -846325020#0 -1227368393#1 -1227368393#0 -846325019#3 -846325019#2 -846325019#1 -846325019#0 -1235288594 -33527181#1 lane_exit_speed_A lane_exit_A"/>
    </vehicle>
    <vehicle id="r_tun_axs_KS_____3_car_aggr3.1" type="car_aggr3" depart="14242.34">
        <route edges="lane_entry_B -1235288634.27 -12352886340 -1235288632 -1235288631 -1081634439#1 -1081634439#0 -1235288620 -1081634444 -1235288624 -846325020#2 -846325020#1 -846325020#0 -1227368393#1 -1227368393#0 -846325019#3 -846325019#2 -846325019#1 -846325019#0 -1235288594 -33527181#1 lane_exit_speed_A lane_exit_A"/>
    </vehicle>
    <vehicle id="r_tun_axs_KS_____3_car_aggr3.2" type="car_aggr3" depart="14518.12">
        <route edges="lane_entry_B -1235288634.27 -12352886340 -1235288632 -1235288631 -1081634439#1 -1081634439#0 -1235288620 -1081634444 -1235288624 -846325020#2 -846325020#1 -846325020#0 -1227368393#1 -1227368393#0 -846325019#3 -846325019#2 -846325019#1 -846325019#0 -1235288594 -33527181#1 lane_exit_speed_A lane_exit_A"/>
    </vehicle>
    <vehicle id="r_luz_tun_aAm_eWa_4_car_aggr4.0" type="car_aggr4" depart="16688.11">
        <route edges="lane_entry_A 33527181#10.27 33527181#10.55 1235288594 846325019#0 846325019#1 846325019#2 846325019#3 1227368393#0 1227368393#1 1235288599 846325020#1 846325020#2 1235288621 1081634444 1235288620 1227368394 1081634439#1 1081634439#2 1235288632 1235288634 lane_exit_speed_B lane_exit_B"/>
    </vehicle>
    <vehicle id="r_and_alt_1_4_car_aggr3.0" type="car_aggr3" depart="17083.76">
        <route edges="lane_entry_B -1235288634.27 -12352886340 -1235288632 -1235288631 -1081634439#1 -1081634439#0 -1235288620 -1081634444 -1235288624 -846325020#2 -846325020#1 -846325020#0 -1227368393#1 -1227368393#0 -846325019#3 -846325019#2 -846325019#1 -846325019#0 -1235288594 -33527181#1 lane_exit_speed_A lane_exit_A"/>
    </vehicle>
    <vehicle id="r_luz_tun_aAm_eWa_4_car_aggr3.0" type="car_aggr3" depart="17250.51">
        <route edges="lane_entry_A 33527181#10.27 33527181#10.55 1235288594 846325019#0 846325019#1 846325019#2 846325019#3 1227368393#0 1227368393#1 1235288599 846325020#1 846325020#2 1235288621 1081634444 1235288620 1227368394 1081634439#1 1081634439#2 1235288632 1235288634 lane_exit_speed_B lane_exit_B"/>
    </vehicle>
    <vehicle id="r_luz_tun_aAm_eWa_4_small_truck.0" type="small_truck" depart="17383.74">
        <route edges="lane_entry_A 33527181#10.27 33527181#10.55 1235288594 846325019#0 846325019#1 846325019#2 846325019#3 1227368393#0 1227368393#1 1235288599 846325020#1 846325020#2 1235288621 1081634444 1235288620 1227368394 1081634439#1 1081634439#2 1235288632 1235288634 lane_exit_speed_B lane_exit_B"/>
    </vehicle>
    <vehicle id="r_luz_tun_aAm_eWa_4_car_aggr3.1" type="car_aggr3" depart="17550.97">
        <route edges="lane_entry_A 33527181#10.27 33527181#10.55 1235288594 846325019#0 846325019#1 846325019#2 846325019#3 1227368393#0 1227368393#1 1235288599 846325020#1 846325020#2 1235288621 1081634444 1235288620 1227368394 1081634439#1 1081634439#2 1235288632 1235288634 lane_exit_speed_B lane_exit_B"/>
    </vehicle>
    <vehicle id="r_axs_tun_aEr_eWa_4_car_aggr3.0" type="car_aggr3" depart="17581.17">
        <route edges="lane_entry_A 33527181#10.27 33527181#10.55 1235288594 846325019#0 846325019#1 846325019#2 846325019#3 1227368393#0 1227368393#1 1235288599 846325020#1 846325020#2 1235288621 1081634444 1235288620 1227368394 1081634439#1 1081634439#2 1235288632 1235288634 lane_exit_speed_B lane_exit_B"/>
    </vehicle>
    <vehicle id="r_and_alt_1_4_car_aggr4.0" type="car_aggr4" depart="18675.52">
        <route edges="lane_entry_B -1235288634.27 -12352886340 -1235288632 -1235288631 -1081634439#1 -1081634439#0 -1235288620 -1081634444 -1235288624 -846325020#2 -846325020#1 -846325020#0 -1227368393#1 -1227368393#0 -846325019#3 -846325019#2 -846325019#1 -846325019#0 -1235288594 -33527181#1 lane_exit_speed_A lane_exit_A"/>
    </vehicle>
    <vehicle id="r_luz_tun_aEr_eWa_4_car_aggr3.0" type="car_aggr3" depart="18695.84">
        <route edges="lane_entry_A 33527181#10.27 33527181#10.55 1235288594 846325019#0 846325019#1 846325019#2 846325019#3 1227368393#0 1227368393#1 1235288599 846325020#1 846325020#2 1235288621 1081634444 1235288620 1227368394 1081634439#1 1081634439#2 1235288632 1235288634 lane_exit_speed_B lane_exit_B"/>
    </vehicle>
    <vehicle id="r_luz_tun_aEr_eWa_4_car_aggr5.0" type="car_aggr5" depart="18698.95">
        <route edges="lane_entry_A 33527181#10.27 33527181#10.55 1235288594 846325019#0 846325019#1 846325019#2 846325019#3 1227368393#0 1227368393#1 1235288599 846325020#1 846325020#2 1235288621 1081634444 1235288620 1227368394 1081634439#1 1081634439#2 1235288632 1235288634 lane_exit_speed_B lane_exit_B"/>
    </vehicle>
    <vehicle id="r_axs_tun_aAm_eWa_4_big_truck.0" type="big_truck" depart="19053.55">
        <route edges="lane_entry_A 33527181#10.27 33527181#10.55 1235288594 846325019#0 846325019#1 846325019#2 846325019#3 1227368393#0 1227368393#1 1235288599 846325020#1 846325020#2 1235288621 1081634444 1235288620 1227368394 1081634439#1 1081634439#2 1235288632 1235288634 lane_exit_speed_B lane_exit_B"/>
    </vehicle>
    <vehicle id="r_and_alt_1_6_car_aggr2.0" type="car_aggr2" depart="22609.60">
        <route edges="lane_entry_B -1235288634.27 -12352886340 -1235288632 -1235288631 -1081634439#1 -1081634439#0 -1235288620 -1081634444 -1235288624 -846325020#2 -846325020#1 -846325020#0 -1227368393#1 -1227368393#0 -846325019#3 -846325019#2 -846325019#1 -846325019#0 -1235288594 -33527181#1 lane_exit_speed_A lane_exit_A"/>
    </vehicle>
    <vehicle id="r_and_alt_1_6_car_aggr3.0" type="car_aggr3" depart="22876.82">
        <route edges="lane_entry_B -1235288634.27 -12352886340 -1235288632 -1235288631 -1081634439#1 -1081634439#0 -1235288620 -1081634444 -1235288624 -846325020#2 -846325020#1 -846325020#0 -1227368393#1 -1227368393#0 -846325019#3 -846325019#2 -846325019#1 -846325019#0 -1235288594 -33527181#1 lane_exit_speed_A lane_exit_A"/>
    </vehicle>
    <vehicle id="r_and_alt_1_6_car_aggr3.1" type="car_aggr3" depart="23024.14">
        <route edges="lane_entry_B -1235288634.27 -12352886340 -1235288632 -1235288631 -1081634439#1 -1081634439#0 -1235288620 -1081634444 -1235288624 -846325020#2 -846325020#1 -846325020#0 -1227368393#1 -1227368393#0 -846325019#3 -846325019#2 -846325019#1 -846325019#0 -1235288594 -33527181#1 lane_exit_speed_A lane_exit_A"/>
    </vehicle>
    <vehicle id="r_alt_and_1_6_car_aggr3.0" type="car_aggr3" depart="23097.35">
        <route edges="lane_entry_A 33527181#10.27 33527181#10.55 1235288594 846325019#0 846325019#1 846325019#2 846325019#3 1227368393#0 1227368393#1 1235288599 846325020#1 846325020#2 1235288621 1081634444 1235288620 1227368394 1081634439#1 1081634439#2 1235288632 1235288634 lane_exit_speed_B lane_exit_B"/>
    </vehicle>
    <vehicle id="r_and_alt_1_6_car_aggr3.2" type="car_aggr3" depart="24028.58">
        <route edges="lane_entry_B -1235288634.27 -12352886340 -1235288632 -1235288631 -1081634439#1 -1081634439#0 -1235288620 -1081634444 -1235288624 -846325020#2 -846325020#1 -846325020#0 -1227368393#1 -1227368393#0 -846325019#3 -846325019#2 -846325019#1 -846325019#0 -1235288594 -33527181#1 lane_exit_speed_A lane_exit_A"/>
    </vehicle>
    <vehicle id="r_alt_and_1_6_big_truck.0" type="big_truck" depart="24207.14">
        <route edges="lane_entry_A 33527181#10.27 33527181#10.55 1235288594 846325019#0 846325019#1 846325019#2 846325019#3 1227368393#0 1227368393#1 1235288599 846325020#1 846325020#2 1235288621 1081634444 1235288620 1227368394 1081634439#1 1081634439#2 1235288632 1235288634 lane_exit_speed_B lane_exit_B"/>
    </vehicle>
    <vehicle id="r_alt_and_1_6_car_aggr4.0" type="car_aggr4" depart="24429.04">
        <route edges="lane_entry_A 33527181#10.27 33527181#10.55 1235288594 846325019#0 846325019#1 846325019#2 846325019#3 1227368393#0 1227368393#1 1235288599 846325020#1 846325020#2 1235288621 1081634444 1235288620 1227368394 1081634439#1 1081634439#2 1235288632 1235288634 lane_exit_speed_B lane_exit_B"/>
    </vehicle>
    <vehicle id="r_alt_and_1_6_small_truck.0" type="small_truck" depart="24509.69">
        <route edges="lane_entry_A 33527181#10.27 33527181#10.55 1235288594 846325019#0 846325019#1 846325019#2 846325019#3 1227368393#0 1227368393#1 1235288599 846325020#1 846325020#2 1235288621 1081634444 1235288620 1227368394 1081634439#1 1081634439#2 1235288632 1235288634 lane_exit_speed_B lane_exit_B"/>
    </vehicle>
    <vehicle id="r_and_alt_1_6_small_truck.0" type="small_truck" depart="24694.71">
        <route edges="lane_entry_B -1235288634.27 -12352886340 -1235288632 -1235288631 -1081634439#1 -1081634439#0 -1235288620 -1081634444 -1235288624 -846325020#2 -846325020#1 -846325020#0 -1227368393#1 -1227368393#0 -846325019#3 -846325019#2 -846325019#1 -846325019#0 -1235288594 -33527181#1 lane_exit_speed_A lane_exit_A"/>
    </vehicle>
    <vehicle id="r_and_alt_1_6_car_aggr4.0" type="car_aggr4" depart="24792.38">
        <route edges="lane_entry_B -1235288634.27 -12352886340 -1235288632 -1235288631 -1081634439#1 -1081634439#0 -1235288620 -1081634444 -1235288624 -846325020#2 -846325020#1 -846325020#0 -1227368393#1 -1227368393#0 -846325019#3 -846325019#2 -846325019#1 -846325019#0 -1235288594 -33527181#1 lane_exit_speed_A lane_exit_A"/>
    </vehicle>
    <vehicle id="r_and_alt_1_6_car_aggr2.1" type="car_aggr2" depart="25048.88">
        <route edges="lane_entry_B -1235288634.27 -12352886340 -1235288632 -1235288631 -1081634439#1 -1081634439#0 -1235288620 -1081634444 -1235288624 -846325020#2 -846325020#1 -846325020#0 -1227368393#1 -1227368393#0 -846325019#3 -846325019#2 -846325019#1 -846325019#0 -1235288594 -33527181#1 lane_exit_speed_A lane_exit_A"/>
    </vehicle>
    <vehicle id="r_and_alt_1_6_car_aggr5.0" type="car_aggr5" depart="25217.13">
        <route edges="lane_entry_B -1235288634.27 -12352886340 -1235288632 -1235288631 -1081634439#1 -1081634439#0 -1235288620 -1081634444 -1235288624 -846325020#2 -846325020#1 -846325020#0 -1227368393#1 -1227368393#0 -846325019#3 -846325019#2 -846325019#1 -846325019#0 -1235288594 -33527181#1 lane_exit_speed_A lane_exit_A"/>
    </vehicle>
    <vehicle id="r_alt_and_1_6_car_aggr3.1" type="car_aggr3" depart="25684.98">
        <route edges="lane_entry_A 33527181#10.27 33527181#10.55 1235288594 846325019#0 846325019#1 846325019#2 846325019#3 1227368393#0 1227368393#1 1235288599 846325020#1 846325020#2 1235288621 1081634444 1235288620 1227368394 1081634439#1 1081634439#2 1235288632 1235288634 lane_exit_speed_B lane_exit_B"/>
    </vehicle>
    <vehicle id="r_alt_and_1_6_small_truck.1" type="small_truck" depart="25885.11">
        <route edges="lane_entry_A 33527181#10.27 33527181#10.55 1235288594 846325019#0 846325019#1 846325019#2 846325019#3 1227368393#0 1227368393#1 1235288599 846325020#1 846325020#2 1235288621 1081634444 1235288620 1227368394 1081634439#1 1081634439#2 1235288632 1235288634 lane_exit_speed_B lane_exit_B"/>
    </vehicle>
    <vehicle id="r_and_alt_1_7_car_aggr3.0" type="car_aggr3" depart="26415.52">
        <route edges="lane_entry_B -1235288634.27 -12352886340 -1235288632 -1235288631 -1081634439#1 -1081634439#0 -1235288620 -1081634444 -1235288624 -846325020#2 -846325020#1 -846325020#0 -1227368393#1 -1227368393#0 -846325019#3 -846325019#2 -846325019#1 -846325019#0 -1235288594 -33527181#1 lane_exit_speed_A lane_exit_A"/>
    </vehicle>
    <vehicle id="r_and_alt_1_7_car_aggr2.0" type="car_aggr2" depart="26441.37">
        <route edges="lane_entry_B -1235288634.27 -12352886340 -1235288632 -1235288631 -1081634439#1 -1081634439#0 -1235288620 -1081634444 -1235288624 -846325020#2 -846325020#1 -846325020#0 -1227368393#1 -1227368393#0 -846325019#3 -846325019#2 -846325019#1 -846325019#0 -1235288594 -33527181#1 lane_exit_speed_A lane_exit_A"/>
    </vehicle>
    <vehicle id="r_and_alt_1_7_car_aggr5.0" type="car_aggr5" depart="26444.67">
        <route edges="lane_entry_B -1235288634.27 -12352886340 -1235288632 -1235288631 -1081634439#1 -1081634439#0 -1235288620 -1081634444 -1235288624 -846325020#2 -846325020#1 -846325020#0 -1227368393#1 -1227368393#0 -846325019#3 -846325019#2 -846325019#1 -846325019#0 -1235288594 -33527181#1 lane_exit_speed_A lane_exit_A"/>
    </vehicle>
    <vehicle id="r_and_alt_1_7_big_truck.0" type="big_truck" depart="26866.75">
        <route edges="lane_entry_B -1235288634.27 -12352886340 -1235288632 -1235288631 -1081634439#1 -1081634439#0 -1235288620 -1081634444 -1235288624 -846325020#2 -846325020#1 -846325020#0 -1227368393#1 -1227368393#0 -846325019#3 -846325019#2 -846325019#1 -846325019#0 -1235288594 -33527181#1 lane_exit_speed_A lane_exit_A"/>
    </vehicle>
    <vType id="car_aggr1" maxSpeed="35.00" speedFactor="normc(0.80,0.08,0.20,2.00)" vClass="passenger" impatience="2.00" minGapLat="0.80" lcStrategic="60" lcCooperative="0.5" lcSpeedGain="7.0" lcKeepRight="0.6" lcSublane="2.0" lcPushy="1.2" lcPushyGap="0.5" lcAssertive="2.0" lcImpatience="1.0" lcTimeToImpatience="15" lcSigma="0.4" accel="1.8" decel="3.0" tau="5.0">
        <param key="laneChangeModel" value="SL2015"/>
    </vType>
    <vehicle id="r_and_alt_1_7_car_aggr1.0" type="car_aggr1" depart="26927.09">
        <route edges="lane_entry_B -1235288634.27 -12352886340 -1235288632 -1235288631 -1081634439#1 -1081634439#0 -1235288620 -1081634444 -1235288624 -846325020#2 -846325020#1 -846325020#0 -1227368393#1 -1227368393#0 -846325019#3 -846325019#2 -846325019#1 -846325019#0 -1235288594 -33527181#1 lane_exit_speed_A lane_exit_A"/>
    </vehicle>
    <vType id="motorbike" minGap="1.50" maxSpeed="35.00" speedFactor="normc(0.93,0.09,0.20,2.00)" vClass="motorcycle" impatience="3.80" minGapLat="0.40" lcStrategic="20" lcCooperative="0.2" lcSpeedGain="10.0" lcKeepRight="0.3" lcSublane="5.0" lcPushy="2.5" lcPushyGap="0.3" lcAssertive="3.8" lcImpatience="2.4" lcTimeToImpatience="9" lcSigma="0.9" accel="4.5" decel="7.0" tau="3.0">
        <param key="laneChangeModel" value="SL2015"/>
    </vType>
    <vehicle id="r_luz_tun_aAm_eWa_7_motorbike.0" type="motorbike" depart="27031.55">
        <route edges="lane_entry_A 33527181#10.27 33527181#10.55 1235288594 846325019#0 846325019#1 846325019#2 846325019#3 1227368393#0 1227368393#1 1235288599 846325020#1 846325020#2 1235288621 1081634444 1235288620 1227368394 1081634439#1 1081634439#2 1235288632 1235288634 lane_exit_speed_B lane_exit_B"/>
    </vehicle>
    <vehicle id="r_and_alt_1_7_big_truck.1" type="big_truck" depart="27103.02">
        <route edges="lane_entry_B -1235288634.27 -12352886340 -1235288632 -1235288631 -1081634439#1 -1081634439#0 -1235288620 -1081634444 -1235288624 -846325020#2 -846325020#1 -846325020#0 -1227368393#1 -1227368393#0 -846325019#3 -846325019#2 -846325019#1 -846325019#0 -1235288594 -33527181#1 lane_exit_speed_A lane_exit_A"/>
    </vehicle>
    <vehicle id="r_and_alt_1_7_car_aggr1.1" type="car_aggr1" depart="27329.79">
        <route edges="lane_entry_B -1235288634.27 -12352886340 -1235288632 -1235288631 -1081634439#1 -1081634439#0 -1235288620 -1081634444 -1235288624 -846325020#2 -846325020#1 -846325020#0 -1227368393#1 -1227368393#0 -846325019#3 -846325019#2 -846325019#1 -846325019#0 -1235288594 -33527181#1 lane_exit_speed_A lane_exit_A"/>
    </vehicle>
    <vehicle id="r_and_alt_1_7_car_aggr5.1" type="car_aggr5" depart="27333.26">
        <route edges="lane_entry_B -1235288634.27 -12352886340 -1235288632 -1235288631 -1081634439#1 -1081634439#0 -1235288620 -1081634444 -1235288624 -846325020#2 -846325020#1 -846325020#0 -1227368393#1 -1227368393#0 -846325019#3 -846325019#2 -846325019#1 -846325019#0 -1235288594 -33527181#1 lane_exit_speed_A lane_exit_A"/>
    </vehicle>
    <vehicle id="r_and_alt_1_7_car_aggr3.1" type="car_aggr3" depart="27337.88">
        <route edges="lane_entry_B -1235288634.27 -12352886340 -1235288632 -1235288631 -1081634439#1 -1081634439#0 -1235288620 -1081634444 -1235288624 -846325020#2 -846325020#1 -846325020#0 -1227368393#1 -1227368393#0 -846325019#3 -846325019#2 -846325019#1 -846325019#0 -1235288594 -33527181#1 lane_exit_speed_A lane_exit_A"/>
    </vehicle>
    <vehicle id="r_and_alt_1_7_car_aggr4.0" type="car_aggr4" depart="27341.64">
        <route edges="lane_entry_B -1235288634.27 -12352886340 -1235288632 -1235288631 -1081634439#1 -1081634439#0 -1235288620 -1081634444 -1235288624 -846325020#2 -846325020#1 -846325020#0 -1227368393#1 -1227368393#0 -846325019#3 -846325019#2 -846325019#1 -846325019#0 -1235288594 -33527181#1 lane_exit_speed_A lane_exit_A"/>
    </vehicle>
    <vehicle id="r_and_alt_1_7_car_aggr5.2" type="car_aggr5" depart="27344.87">
        <route edges="lane_entry_B -1235288634.27 -12352886340 -1235288632 -1235288631 -1081634439#1 -1081634439#0 -1235288620 -1081634444 -1235288624 -846325020#2 -846325020#1 -846325020#0 -1227368393#1 -1227368393#0 -846325019#3 -846325019#2 -846325019#1 -846325019#0 -1235288594 -33527181#1 lane_exit_speed_A lane_exit_A"/>
    </vehicle>
    <vehicle id="r_and_alt_1_7_car_aggr3.2" type="car_aggr3" depart="27390.63">
        <route edges="lane_entry_B -1235288634.27 -12352886340 -1235288632 -1235288631 -1081634439#1 -1081634439#0 -1235288620 -1081634444 -1235288624 -846325020#2 -846325020#1 -846325020#0 -1227368393#1 -1227368393#0 -846325019#3 -846325019#2 -846325019#1 -846325019#0 -1235288594 -33527181#1 lane_exit_speed_A lane_exit_A"/>
    </vehicle>
    <vehicle id="r_and_alt_1_7_motorbike.0" type="motorbike" depart="27409.98">
        <route edges="lane_entry_B -1235288634.27 -12352886340 -1235288632 -1235288631 -1081634439#1 -1081634439#0 -1235288620 -1081634444 -1235288624 -846325020#2 -846325020#1 -846325020#0 -1227368393#1 -1227368393#0 -846325019#3 -846325019#2 -846325019#1 -846325019#0 -1235288594 -33527181#1 lane_exit_speed_A lane_exit_A"/>
    </vehicle>
    <vehicle id="r_luz_tun_aAm_eGo_7_car_aggr3.0" type="car_aggr3" depart="27492.78">
        <route edges="lane_entry_A 33527181#10.27 33527181#10.55 1235288594 846325019#0 846325019#1 846325019#2 846325019#3 1227368393#0 1227368393#1 1235288599 846325020#1 846325020#2 1235288621 1081634444 1235288620 1227368394 1081634439#1 1081634439#2 1235288632 1235288634 lane_exit_speed_B lane_exit_B"/>
    </vehicle>
    <vehicle id="r_luz_tun_aEr_eWa_7_small_truck.0" type="small_truck" depart="27496.64">
        <route edges="lane_entry_A 33527181#10.27 33527181#10.55 1235288594 846325019#0 846325019#1 846325019#2 846325019#3 1227368393#0 1227368393#1 1235288599 846325020#1 846325020#2 1235288621 1081634444 1235288620 1227368394 1081634439#1 1081634439#2 1235288632 1235288634 lane_exit_speed_B lane_exit_B"/>
    </vehicle>
    <vehicle id="r_and_alt_1_7_car_aggr3.3" type="car_aggr3" depart="27544.48">
        <route edges="lane_entry_B -1235288634.27 -12352886340 -1235288632 -1235288631 -1081634439#1 -1081634439#0 -1235288620 -1081634444 -1235288624 -846325020#2 -846325020#1 -846325020#0 -1227368393#1 -1227368393#0 -846325019#3 -846325019#2 -846325019#1 -846325019#0 -1235288594 -33527181#1 lane_exit_speed_A lane_exit_A"/>
    </vehicle>
    <vehicle id="r_and_alt_1_7_car_aggr1.2" type="car_aggr1" depart="27635.28">
        <route edges="lane_entry_B -1235288634.27 -12352886340 -1235288632 -1235288631 -1081634439#1 -1081634439#0 -1235288620 -1081634444 -1235288624 -846325020#2 -846325020#1 -846325020#0 -1227368393#1 -1227368393#0 -846325019#3 -846325019#2 -846325019#1 -846325019#0 -1235288594 -33527181#1 lane_exit_speed_A lane_exit_A"/>
    </vehicle>
    <vehicle id="r_and_alt_1_7_car_aggr1.3" type="car_aggr1" depart="27696.55">
        <route edges="lane_entry_B -1235288634.27 -12352886340 -1235288632 -1235288631 -1081634439#1 -1081634439#0 -1235288620 -1081634444 -1235288624 -846325020#2 -846325020#1 -846325020#0 -1227368393#1 -1227368393#0 -846325019#3 -846325019#2 -846325019#1 -846325019#0 -1235288594 -33527181#1 lane_exit_speed_A lane_exit_A"/>
    </vehicle>
    <vehicle id="r_and_alt_1_7_big_truck.2" type="big_truck" depart="27759.30">
        <route edges="lane_entry_B -1235288634.27 -12352886340 -1235288632 -1235288631 -1081634439#1 -1081634439#0 -1235288620 -1081634444 -1235288624 -846325020#2 -846325020#1 -846325020#0 -1227368393#1 -1227368393#0 -846325019#3 -846325019#2 -846325019#1 -846325019#0 -1235288594 -33527181#1 lane_exit_speed_A lane_exit_A"/>
    </vehicle>
    <vehicle id="r_and_alt_1_7_motorbike.1" type="motorbike" depart="27763.82">
        <route edges="lane_entry_B -1235288634.27 -12352886340 -1235288632 -1235288631 -1081634439#1 -1081634439#0 -1235288620 -1081634444 -1235288624 -846325020#2 -846325020#1 -846325020#0 -1227368393#1 -1227368393#0 -846325019#3 -846325019#2 -846325019#1 -846325019#0 -1235288594 -33527181#1 lane_exit_speed_A lane_exit_A"/>
    </vehicle>
    <vehicle id="r_and_alt_1_7_car_aggr5.3" type="car_aggr5" depart="27766.91">
        <route edges="lane_entry_B -1235288634.27 -12352886340 -1235288632 -1235288631 -1081634439#1 -1081634439#0 -1235288620 -1081634444 -1235288624 -846325020#2 -846325020#1 -846325020#0 -1227368393#1 -1227368393#0 -846325019#3 -846325019#2 -846325019#1 -846325019#0 -1235288594 -33527181#1 lane_exit_speed_A lane_exit_A"/>
    </vehicle>
    <vehicle id="r_and_alt_1_7_motorbike.2" type="motorbike" depart="27770.68">
        <route edges="lane_entry_B -1235288634.27 -12352886340 -1235288632 -1235288631 -1081634439#1 -1081634439#0 -1235288620 -1081634444 -1235288624 -846325020#2 -846325020#1 -846325020#0 -1227368393#1 -1227368393#0 -846325019#3 -846325019#2 -846325019#1 -846325019#0 -1235288594 -33527181#1 lane_exit_speed_A lane_exit_A"/>
    </vehicle>
    <vehicle id="r_and_alt_1_7_car_aggr3.4" type="car_aggr3" depart="27774.98">
        <route edges="lane_entry_B -1235288634.27 -12352886340 -1235288632 -1235288631 -1081634439#1 -1081634439#0 -1235288620 -1081634444 -1235288624 -846325020#2 -846325020#1 -846325020#0 -1227368393#1 -1227368393#0 -846325019#3 -846325019#2 -846325019#1 -846325019#0 -1235288594 -33527181#1 lane_exit_speed_A lane_exit_A"/>
    </vehicle>
    <vehicle id="r_luz_tun_aAm_eGo_7_car_aggr1.1" type="car_aggr1" depart="27802.89">
        <route edges="lane_entry_A 33527181#10.27 33527181#10.55 1235288594 846325019#0 846325019#1 846325019#2 846325019#3 1227368393#0 1227368393#1 1235288599 846325020#1 846325020#2 1235288621 1081634444 1235288620 1227368394 1081634439#1 1081634439#2 1235288632 1235288634 lane_exit_speed_B lane_exit_B"/>
    </vehicle>
    <vehicle id="r_luz_tun_aAm_eGo_7_car_aggr1.0" type="car_aggr1" depart="27884.59">