<?xml version="1.0" encoding="UTF-8"?>

<!-- generated on 2025-05-13 10:56:58 by Eclipse SUMO netedit Version 1.22.0
<neteditConfiguration xmlns:xsi="http://www.w3.org/2001/XMLSchema-instance" xsi:noNamespaceSchemaLocation="http://sumo.dlr.de/xsd/neteditConfiguration.xsd">

    <input>
        <additional-files value="/home/epsilon/Documents/bachelor_thesis/thesis_2025_eth_cedric_zeiter/simulation/villages/Gurtnellen/gurtnellen.add.xml"/>
        <route-files value="/home/epsilon/Documents/bachelor_thesis/thesis_2025_eth_cedric_zeiter/simulation/villages/Gurtnellen/Erstfeld/demand.rou.xml"/>
        <sumo-net-file value="/home/epsilon/Documents/bachelor_thesis/thesis_2025_eth_cedric_zeiter/simulation/villages/Gurtnellen/osm_original.net.xml"/>
    </input>

    <output>
        <output-file value="/home/epsilon/Documents/bachelor_thesis/thesis_2025_eth_cedric_zeiter/simulation/villages/Gurtnellen/osm_original.net.xml"/>
        <output.street-names value="true"/>
    </output>

    <processing>
        <geometry.min-radius.fix.railways value="false"/>
        <geometry.avoid-overlap value="false"/>
        <geometry.max-grade.fix value="false"/>
        <offset.disable-normalization value="true"/>
        <lefthand value="0"/>
    </processing>

    <junctions>
        <no-turnarounds value="true"/>
        <junctions.corner-detail value="5"/>
        <junctions.limit-turn-speed value="5.50"/>
        <rectangular-lane-cut value="0"/>
    </junctions>

    <pedestrian>
        <walkingareas value="0"/>
    </pedestrian>

</neteditConfiguration>
-->

<net version="1.20" junctionCornerDetail="5" limitTurnSpeed="5.50" avoidOverlap="0" xmlns:xsi="http://www.w3.org/2001/XMLSchema-instance" xsi:noNamespaceSchemaLocation="http://sumo.dlr.de/xsd/net_file.xsd">

    <location netOffset="-455283.56,-5149384.03" convBoundary="15384.49,24642.78,16585.95,26974.73" origBoundary="8.309256,46.497869,8.861170,47.051866" projParameter="+proj=utm +zone=32 +ellps=WGS84 +datum=WGS84 +units=m +no_defs"/>

    <type id="highway.footway" priority="1" numLanes="1" speed="2.78" allow="pedestrian" oneway="1" width="2.00"/>
    <type id="highway.motorway" priority="14" numLanes="2" speed="39.44" allow="private emergency authority army vip passenger hov taxi bus coach delivery truck trailer motorcycle evehicle custom1 custom2" oneway="1"/>
    <type id="highway.primary" priority="12" numLanes="2" speed="27.78" disallow="tram rail_urban rail rail_electric rail_fast ship" oneway="0"/>
    <type id="highway.residential" priority="3" numLanes="1" speed="13.89" disallow="tram rail_urban rail rail_electric rail_fast ship" oneway="0"/>
    <type id="highway.tertiary" priority="10" numLanes="1" speed="22.22" disallow="tram rail_urban rail rail_electric rail_fast ship" oneway="0"/>
    <type id="highway.unclassified" priority="4" numLanes="1" speed="13.89" disallow="tram rail_urban rail rail_electric rail_fast ship" oneway="0"/>

    <edge id=":10574277486_0" function="internal">
        <lane id=":10574277486_0_0" index="0" disallow="tram rail_urban rail rail_electric rail_fast ship cable_car subway" speed="13.89" length="0.12" shape="15910.40,25583.97 15910.33,25583.88"/>
    </edge>
    <edge id=":10574277486_1" function="internal">
        <lane id=":10574277486_1_0" index="0" disallow="tram rail_urban rail rail_electric rail_fast ship cable_car subway" speed="13.89" length="0.36" shape="15912.76,25581.80 15912.98,25582.08"/>
    </edge>
    <edge id=":11002239591_0" function="internal">
        <lane id=":11002239591_0_0" index="0" disallow="tram rail_urban rail rail_electric rail_fast ship cable_car subway" speed="13.89" length="0.31" shape="15796.12,25465.23 15795.91,25465.00"/>
    </edge>
    <edge id=":11002239591_1" function="internal">
        <lane id=":11002239591_1_0" index="0" disallow="tram rail_urban rail rail_electric rail_fast ship cable_car subway" speed="13.89" length="0.29" shape="15798.29,25462.86 15798.48,25463.07"/>
    </edge>
    <edge id=":11086753488_0" function="internal">
        <lane id=":11086753488_0_0" index="0" allow="private emergency authority army vip passenger hov taxi bus coach delivery truck trailer motorcycle evehicle custom1 custom2" speed="33.33" length="8.25" shape="16011.62,25661.61 16009.58,25660.12 16007.72,25659.71 16005.88,25659.29 16003.88,25657.76"/>
        <lane id=":11086753488_0_1" index="1" allow="private emergency authority army vip passenger hov taxi bus coach delivery truck trailer motorcycle evehicle custom1 custom2" speed="33.33" length="8.25" shape="16011.62,25661.61 16006.28,25655.65"/>
        <lane id=":11086753488_0_2" index="2" allow="private emergency authority army vip passenger hov taxi bus coach delivery truck trailer motorcycle evehicle custom1 custom2" speed="33.33" length="8.25" shape="16013.98,25659.45 16008.69,25653.54"/>
    </edge>
    <edge id=":11108399488_0" function="internal">
        <lane id=":11108399488_0_0" index="0" disallow="tram rail_urban rail rail_electric rail_fast ship cable_car subway" speed="22.22" length="5.68" shape="15702.89,25276.09 15699.89,25271.27"/>
    </edge>
    <edge id=":11108399488_1" function="internal">
        <lane id=":11108399488_1_0" index="0" disallow="tram rail_urban rail rail_electric rail_fast ship cable_car subway" speed="22.22" length="5.60" shape="15702.62,25269.61 15705.59,25274.37"/>
    </edge>
    <edge id=":11108414340_0" function="internal">
        <lane id=":11108414340_0_0" index="0" disallow="tram rail_urban rail rail_electric rail_fast ship cable_car subway" speed="22.22" length="0.25" shape="16131.56,26261.13 16131.45,26260.91"/>
    </edge>
    <edge id=":11108414340_1" function="internal">
        <lane id=":11108414340_1_0" index="0" disallow="tram rail_urban rail rail_electric rail_fast ship cable_car subway" speed="22.22" length="0.31" shape="16134.26,26259.38 16134.40,26259.66"/>
    </edge>
    <edge id=":11108414405_0" function="internal">
        <lane id=":11108414405_0_0" index="0" disallow="tram rail_urban rail rail_electric rail_fast ship cable_car subway" speed="13.89" length="1.33" shape="15972.19,26029.47 15971.92,26029.18 15971.75,26028.97 15971.61,26028.75 15971.42,26028.40"/>
    </edge>
    <edge id=":11108414405_1" function="internal">
        <lane id=":11108414405_1_0" index="0" disallow="tram rail_urban rail rail_electric rail_fast ship cable_car subway" speed="13.89" length="0.44" shape="15974.24,26026.90 15974.31,26027.01 15974.35,26027.09 15974.41,26027.16 15974.50,26027.25"/>
    </edge>
    <edge id=":11108461581_0" function="internal">
        <lane id=":11108461581_0_0" index="0" disallow="tram rail_urban rail rail_electric rail_fast ship cable_car subway" speed="22.22" length="0.30" shape="16374.63,26086.94 16374.42,26086.73"/>
    </edge>
    <edge id=":11108461581_1" function="internal">
        <lane id=":11108461581_1_0" index="0" disallow="tram rail_urban rail rail_electric rail_fast ship cable_car subway" speed="22.22" length="0.30" shape="16376.67,26084.46 16376.88,26084.67"/>
    </edge>
    <edge id=":11257058138_0" function="internal">
        <lane id=":11257058138_0_0" index="0" disallow="tram rail_urban rail rail_electric rail_fast ship cable_car subway" speed="22.22" length="0.67" shape="16336.73,26765.30 16336.55,26765.22 16336.43,26765.17 16336.31,26765.10 16336.14,26765.00"/>
    </edge>
    <edge id=":11257058138_1" function="internal">
        <lane id=":11257058138_1_0" index="0" disallow="tram rail_urban rail rail_electric rail_fast ship cable_car subway" speed="22.22" length="0.22" shape="16337.78,26762.25 16337.84,26762.29 16337.88,26762.31 16337.92,26762.33 16337.98,26762.35"/>
    </edge>
    <edge id=":11347478204_0" function="internal">
        <lane id=":11347478204_0_0" index="0" disallow="tram rail_urban rail rail_electric rail_fast ship cable_car subway" speed="7.58" length="2.55" shape="15539.01,25494.58 15538.42,25494.12 15538.05,25493.75 15537.78,25493.30 15537.47,25492.61"/>
    </edge>
    <edge id=":11347478204_1" function="internal">
        <lane id=":11347478204_1_0" index="0" disallow="tram rail_urban rail rail_electric rail_fast ship cable_car subway" speed="13.89" length="0.85" shape="15540.41,25491.36 15540.52,25491.59 15540.61,25491.74 15540.73,25491.86 15540.93,25492.02"/>
    </edge>
    <edge id=":11381466257_0" function="internal">
        <lane id=":11381466257_0_0" index="0" disallow="tram rail_urban rail rail_electric rail_fast ship cable_car subway" speed="18.05" length="0.31" shape="16126.37,25868.01 16126.09,25867.87"/>
    </edge>
    <edge id=":11381466257_1" function="internal">
        <lane id=":11381466257_1_0" index="0" disallow="tram rail_urban rail rail_electric rail_fast ship cable_car subway" speed="18.05" length="0.28" shape="16127.56,25865.03 16127.82,25865.16"/>
    </edge>
    <edge id=":11466769879_0" function="internal">
        <lane id=":11466769879_0_0" index="0" disallow="tram rail_urban rail rail_electric rail_fast ship cable_car subway" speed="22.22" length="0.29" shape="16410.21,26122.23 16410.01,26122.02"/>
    </edge>
    <edge id=":11466769879_1" function="internal">
        <lane id=":11466769879_1_0" index="0" disallow="tram rail_urban rail rail_electric rail_fast ship cable_car subway" speed="22.22" length="0.31" shape="16412.26,26119.75 16412.48,26119.97"/>
    </edge>
    <edge id=":11466769952_0" function="internal">
        <lane id=":11466769952_0_0" index="0" disallow="tram rail_urban rail rail_electric rail_fast ship cable_car subway" speed="13.89" length="21.89" shape="15998.74,25744.08 15987.65,25725.21"/>
    </edge>
    <edge id=":11466769952_1" function="internal">
        <lane id=":11466769952_1_0" index="0" disallow="tram rail_urban rail rail_electric rail_fast ship cable_car subway" speed="13.89" length="21.89" shape="15990.40,25723.59 16001.50,25742.45"/>
    </edge>
    <edge id=":11466769958_0" function="internal">
        <lane id=":11466769958_0_0" index="0" disallow="tram rail_urban rail rail_electric rail_fast ship cable_car subway" speed="13.89" length="0.10" shape="15916.42,25642.52 15916.42,25642.52"/>
    </edge>
    <edge id=":11466769958_1" function="internal">
        <lane id=":11466769958_1_0" index="0" disallow="tram rail_urban rail rail_electric rail_fast ship cable_car subway" speed="13.89" length="0.10" shape="15918.72,25640.30 15918.72,25640.30"/>
    </edge>
    <edge id=":11466770025_0" function="internal">
        <lane id=":11466770025_0_0" index="0" disallow="tram rail_urban rail rail_electric rail_fast ship cable_car subway" speed="13.89" length="0.30" shape="15758.64,25401.00 15758.61,25400.70"/>
    </edge>
    <edge id=":11466770025_1" function="internal">
        <lane id=":11466770025_1_0" index="0" disallow="tram rail_urban rail rail_electric rail_fast ship cable_car subway" speed="13.89" length="0.30" shape="15761.80,25400.40 15761.83,25400.70"/>
    </edge>
    <edge id=":11466770067_0" function="internal">
        <lane id=":11466770067_0_0" index="0" disallow="tram rail_urban rail rail_electric rail_fast ship cable_car subway" speed="22.22" length="12.87" shape="15601.53,25070.27 15598.21,25057.84"/>
    </edge>
    <edge id=":11466770067_1" function="internal">
        <lane id=":11466770067_1_0" index="0" disallow="tram rail_urban rail rail_electric rail_fast ship cable_car subway" speed="22.22" length="12.81" shape="15601.31,25057.06 15604.62,25069.44"/>
    </edge>
    <edge id=":11466770074_0" function="internal">
        <lane id=":11466770074_0_0" index="0" disallow="tram rail_urban rail rail_electric rail_fast ship cable_car subway" speed="22.22" length="0.31" shape="15546.83,24925.81 15546.71,24925.52"/>
    </edge>
    <edge id=":11466770074_1" function="internal">
        <lane id=":11466770074_1_0" index="0" disallow="tram rail_urban rail rail_electric rail_fast ship cable_car subway" speed="22.22" length="0.28" shape="15549.65,24924.27 15549.76,24924.52"/>
    </edge>
    <edge id=":1157687856_0" function="internal">
        <lane id=":1157687856_0_0" index="0" disallow="tram rail_urban rail rail_electric rail_fast ship cable_car subway" speed="13.89" length="0.34" shape="15665.01,25601.57 15664.96,25601.49 15664.92,25601.43 15664.87,25601.38 15664.80,25601.31"/>
    </edge>
    <edge id=":1157687856_1" function="internal">
        <lane id=":1157687856_1_0" index="0" disallow="tram rail_urban rail rail_electric rail_fast ship cable_car subway" speed="13.89" length="1.02" shape="15667.10,25599.08 15667.31,25599.30 15667.45,25599.46 15667.57,25599.63 15667.73,25599.89"/>
    </edge>
    <edge id=":1157688095_0" function="internal">
        <lane id=":1157688095_0_0" index="0" disallow="tram rail_urban rail rail_electric rail_fast ship cable_car subway" speed="7.17" length="2.95" shape="15603.93,25525.55 15603.06,25525.60 15602.46,25525.54 15601.89,25525.32 15601.14,25524.90"/>
    </edge>
    <edge id=":1157688095_1" function="internal">
        <lane id=":1157688095_1_0" index="0" disallow="tram rail_urban rail rail_electric rail_fast ship cable_car subway" speed="13.89" length="0.98" shape="15602.76,25522.14 15603.01,25522.28 15603.20,25522.36 15603.40,25522.38 15603.69,25522.36"/>
    </edge>
    <edge id=":1157688229_0" function="internal">
        <lane id=":1157688229_0_0" index="0" disallow="tram rail_urban rail rail_electric rail_fast ship cable_car subway" speed="3.65" length="4.67" shape="15519.54,25428.01 15519.99,25426.64 15520.65,25426.04 15521.53,25426.21 15522.62,25427.15"/>
    </edge>
    <edge id=":1157688672_0" function="internal">
        <lane id=":1157688672_0_0" index="0" disallow="tram rail_urban rail rail_electric rail_fast ship cable_car subway" speed="3.65" length="4.67" shape="16538.13,26973.83 16538.15,26975.27 16537.71,26976.05 16536.83,26976.17 16535.49,26975.63"/>
    </edge>
    <edge id=":11697675274_0" function="internal">
        <lane id=":11697675274_0_0" index="0" disallow="tram rail_urban rail rail_electric rail_fast ship cable_car subway" speed="13.89" length="0.30" shape="15794.15,25667.41 15793.96,25667.18"/>
    </edge>
    <edge id=":11697675274_1" function="internal">
        <lane id=":11697675274_1_0" index="0" disallow="tram rail_urban rail rail_electric rail_fast ship cable_car subway" speed="13.89" length="0.30" shape="15796.47,25665.19 15796.66,25665.42"/>
    </edge>
    <edge id=":11771063579_0" function="internal">
        <lane id=":11771063579_0_0" index="0" disallow="tram rail_urban rail rail_electric rail_fast ship cable_car subway" speed="3.65" length="4.67" shape="15653.05,25385.39 15652.58,25384.03 15652.75,25383.15 15653.55,25382.76 15654.99,25382.85"/>
    </edge>
    <edge id=":1183294713_0" function="internal">
        <lane id=":1183294713_0_0" index="0" disallow="tram rail_urban rail rail_electric rail_fast ship cable_car subway" speed="22.22" length="0.48" shape="16181.61,26356.77 16181.62,26356.91 16181.63,26357.01 16181.63,26357.11 16181.63,26357.25"/>
    </edge>
    <edge id=":1183294713_1" function="internal">
        <lane id=":1183294713_1_0" index="0" disallow="tram rail_urban rail rail_electric rail_fast ship cable_car subway" speed="22.22" length="0.16" shape="16178.43,26357.19 16178.43,26357.14 16178.43,26357.11 16178.43,26357.08 16178.42,26357.03"/>
    </edge>
    <edge id=":1183295507_0" function="internal">
        <lane id=":1183295507_0_0" index="0" disallow="tram rail_urban rail rail_electric rail_fast ship cable_car subway" speed="22.22" length="0.38" shape="16128.41,26442.40 16128.05,26442.28"/>
    </edge>
    <edge id=":1183295507_1" function="internal">
        <lane id=":1183295507_1_0" index="0" disallow="tram rail_urban rail rail_electric rail_fast ship cable_car subway" speed="22.22" length="0.13" shape="16129.15,26439.27 16129.27,26439.31"/>
    </edge>
    <edge id=":1183312128_0" function="internal">
        <lane id=":1183312128_0_0" index="0" disallow="tram rail_urban rail rail_electric rail_fast ship cable_car subway" speed="18.05" length="0.49" shape="16017.74,26136.44 16017.65,26136.32 16017.60,26136.24 16017.54,26136.16 16017.46,26136.03"/>
    </edge>
    <edge id=":1183312128_1" function="internal">
        <lane id=":1183312128_1_0" index="0" disallow="tram rail_urban rail rail_electric rail_fast ship cable_car subway" speed="18.05" length="0.16" shape="16020.18,26134.35 16020.21,26134.39 16020.23,26134.42 16020.25,26134.44 16020.28,26134.48"/>
    </edge>
    <edge id=":14612382_0" function="internal">
        <lane id=":14612382_0_0" index="0" allow="private emergency authority army vip passenger hov taxi bus coach delivery truck trailer motorcycle evehicle custom1 custom2" speed="33.33" length="7.97" shape="15923.53,25543.13 15919.44,25536.26"/>
        <lane id=":14612382_0_1" index="1" allow="private emergency authority army vip passenger hov taxi bus coach delivery truck trailer motorcycle evehicle custom1 custom2" speed="33.33" length="7.97" shape="15926.27,25541.48 15922.20,25534.65"/>
    </edge>
    <edge id=":285195970_0" function="internal">
        <lane id=":285195970_0_0" index="0" disallow="tram rail_urban rail rail_electric rail_fast ship cable_car subway" speed="18.05" length="0.13" shape="15754.85,25378.61 15754.81,25378.48"/>
    </edge>
    <edge id=":285195970_1" function="internal">
        <lane id=":285195970_1_0" index="0" disallow="tram rail_urban rail rail_electric rail_fast ship cable_car subway" speed="18.05" length="0.39" shape="15757.82,25377.39 15757.94,25377.76"/>
    </edge>
    <edge id=":3089824935_0" function="internal">
        <lane id=":3089824935_0_0" index="0" allow="private emergency authority army vip passenger hov taxi bus coach delivery truck trailer motorcycle evehicle custom1 custom2" speed="33.33" length="0.10" shape="15824.34,25352.73 15824.30,25352.66"/>
        <lane id=":3089824935_0_1" index="1" allow="private emergency authority army vip passenger hov taxi bus coach delivery truck trailer motorcycle evehicle custom1 custom2" speed="33.33" length="0.10" shape="15827.12,25351.15 15827.16,25351.22"/>
    </edge>
    <edge id=":3738751743_0" function="internal">
        <lane id=":3738751743_0_0" index="0" disallow="tram rail_urban rail rail_electric rail_fast ship cable_car subway" speed="3.65" length="4.67" shape="15840.44,25630.90 15841.24,25632.09 15841.31,25632.99 15840.64,25633.58 15839.22,25633.86"/>
    </edge>
    <edge id=":3738751747_0" function="internal">
        <lane id=":3738751747_0_0" index="0" disallow="tram rail_urban rail rail_electric rail_fast ship cable_car subway" speed="13.89" length="0.13" shape="15771.49,25682.33 15771.41,25682.23"/>
    </edge>
    <edge id=":3738751747_1" function="internal">
        <lane id=":3738751747_1_0" index="0" disallow="tram rail_urban rail rail_electric rail_fast ship cable_car subway" speed="13.89" length="0.40" shape="15773.94,25680.27 15774.17,25680.59"/>
    </edge>
    <edge id=":382372740_0" function="internal">
        <lane id=":382372740_0_0" index="0" disallow="tram rail_urban rail rail_electric rail_fast ship cable_car subway" speed="7.61" length="12.85" shape="15764.23,25596.35 15760.94,25595.80 15758.23,25596.55 15756.08,25598.61 15754.50,25601.98"/>
    </edge>
    <edge id=":382372740_1" function="internal">
        <lane id=":382372740_1_0" index="0" disallow="tram rail_urban rail rail_electric rail_fast ship cable_car subway" speed="13.89" length="3.16" shape="15764.23,25596.35 15761.22,25595.39"/>
    </edge>
    <edge id=":382372740_2" function="internal">
        <lane id=":382372740_2_0" index="0" disallow="tram rail_urban rail rail_electric rail_fast ship cable_car subway" speed="3.91" length="1.98" shape="15764.23,25596.35 15762.75,25595.73 15762.52,25595.44"/>
    </edge>
    <edge id=":382372740_9" function="internal">
        <lane id=":382372740_9_0" index="0" disallow="tram rail_urban rail rail_electric rail_fast ship cable_car subway" speed="13.89" length="10.85" shape="15761.22,25595.39 15760.77,25595.24 15757.52,25594.10 15754.49,25592.59 15751.72,25590.37"/>
    </edge>
    <edge id=":382372740_10" function="internal">
        <lane id=":382372740_10_0" index="0" disallow="tram rail_urban rail rail_electric rail_fast ship cable_car subway" speed="3.91" length="3.24" shape="15762.52,25595.44 15762.14,25594.94 15762.40,25593.97 15763.55,25592.84"/>
    </edge>
    <edge id=":382372740_3" function="internal">
        <lane id=":382372740_3_0" index="0" disallow="tram rail_urban rail rail_electric rail_fast ship cable_car subway" speed="11.70" length="11.01" shape="15754.00,25588.13 15756.27,25590.32 15758.22,25591.68 15760.44,25592.45 15763.55,25592.84"/>
    </edge>
    <edge id=":382372740_4" function="internal">
        <lane id=":382372740_4_0" index="0" disallow="tram rail_urban rail rail_electric rail_fast ship cable_car subway" speed="10.03" length="14.47" shape="15754.00,25588.13 15755.43,25590.42 15755.99,25593.49 15755.68,25597.34 15754.50,25601.98"/>
    </edge>
    <edge id=":382372740_5" function="internal">
        <lane id=":382372740_5_0" index="0" disallow="tram rail_urban rail rail_electric rail_fast ship cable_car subway" speed="3.65" length="4.67" shape="15754.00,25588.13 15754.27,25589.55 15753.98,25590.39 15753.13,25590.67 15751.72,25590.37"/>
    </edge>
    <edge id=":382372740_6" function="internal">
        <lane id=":382372740_6_0" index="0" disallow="tram rail_urban rail rail_electric rail_fast ship cable_car subway" speed="7.46" length="9.21" shape="15752.14,25598.94 15753.14,25596.40 15753.40,25594.12 15752.93,25592.11 15751.72,25590.37"/>
    </edge>
    <edge id=":382372740_7" function="internal">
        <lane id=":382372740_7_0" index="0" disallow="tram rail_urban rail rail_electric rail_fast ship cable_car subway" speed="9.36" length="13.78" shape="15752.14,25598.94 15754.13,25596.05 15756.70,25594.07 15759.84,25593.00 15763.55,25592.84"/>
    </edge>
    <edge id=":382372740_8" function="internal">
        <lane id=":382372740_8_0" index="0" disallow="tram rail_urban rail rail_electric rail_fast ship cable_car subway" speed="3.97" length="1.58" shape="15752.14,25598.94 15753.71,25598.83"/>
    </edge>
    <edge id=":382372740_11" function="internal">
        <lane id=":382372740_11_0" index="0" disallow="tram rail_urban rail rail_electric rail_fast ship cable_car subway" speed="3.97" length="4.04" shape="15753.71,25598.83 15753.86,25598.82 15754.83,25599.28 15755.04,25600.33 15754.50,25601.98"/>
    </edge>
    <edge id=":382372751_0" function="internal">
        <lane id=":382372751_0_0" index="0" disallow="tram rail_urban rail rail_electric rail_fast ship cable_car subway" speed="11.27" length="1.61" shape="15781.46,25643.42 15781.32,25642.97 15781.25,25642.65 15781.23,25642.32 15781.23,25641.84"/>
    </edge>
    <edge id=":382372751_1" function="internal">
        <lane id=":382372751_1_0" index="0" disallow="tram rail_urban rail rail_electric rail_fast ship cable_car subway" speed="13.89" length="0.54" shape="15784.43,25641.92 15784.43,25642.08 15784.44,25642.18 15784.46,25642.29 15784.51,25642.44"/>
    </edge>
    <edge id=":382372752_0" function="internal">
        <lane id=":382372752_0_0" index="0" disallow="tram rail_urban rail rail_electric rail_fast ship cable_car subway" speed="3.65" length="4.67" shape="15895.74,25775.78 15895.82,25777.22 15895.43,25778.03 15894.55,25778.19 15893.18,25777.72"/>
    </edge>
    <edge id=":382402661_0" function="internal">
        <lane id=":382402661_0_0" index="0" disallow="tram rail_urban rail rail_electric rail_fast ship cable_car subway" speed="22.22" length="0.10" shape="16434.94,26147.02 16434.94,26147.02"/>
    </edge>
    <edge id=":382402661_1" function="internal">
        <lane id=":382402661_1_0" index="0" disallow="tram rail_urban rail rail_electric rail_fast ship cable_car subway" speed="22.22" length="0.10" shape="16437.20,26144.76 16437.20,26144.76"/>
    </edge>
    <edge id=":4080583599_0" function="internal">
        <lane id=":4080583599_0_0" index="0" disallow="tram rail_urban rail rail_electric rail_fast ship cable_car subway" speed="13.89" length="0.45" shape="15953.67,25986.39 15953.62,25986.27 15953.58,25986.19 15953.53,25986.11 15953.45,25986.01"/>
    </edge>
    <edge id=":4080583599_1" function="internal">
        <lane id=":4080583599_1_0" index="0" disallow="tram rail_urban rail rail_electric rail_fast ship cable_car subway" speed="13.89" length="1.34" shape="15955.99,25984.06 15956.23,25984.38 15956.38,25984.61 15956.50,25984.85 15956.64,25985.22"/>
    </edge>
    <edge id=":4080583600_0" function="internal">
        <lane id=":4080583600_0_0" index="0" disallow="tram rail_urban rail rail_electric rail_fast ship cable_car subway" speed="13.89" length="0.55" shape="15966.74,26019.63 15966.67,26019.48 15966.62,26019.38 15966.57,26019.28 15966.51,26019.12"/>
    </edge>
    <edge id=":4080583600_1" function="internal">
        <lane id=":4080583600_1_0" index="0" disallow="tram rail_urban rail rail_electric rail_fast ship cable_car subway" speed="13.89" length="0.18" shape="15969.49,26017.95 15969.51,26018.00 15969.53,26018.04 15969.54,26018.07 15969.57,26018.12"/>
    </edge>
    <edge id=":4080583603_0" function="internal">
        <lane id=":4080583603_0_0" index="0" disallow="tram rail_urban rail rail_electric rail_fast ship cable_car subway" speed="3.65" length="4.67" shape="16010.49,26047.43 16011.57,26048.39 16011.86,26049.24 16011.35,26049.98 16010.05,26050.61"/>
    </edge>
    <edge id=":4080583605_0" function="internal">
        <lane id=":4080583605_0_0" index="0" disallow="tram rail_urban rail rail_electric rail_fast ship cable_car subway" speed="22.22" length="0.24" shape="16153.04,25881.53 16152.82,25881.42"/>
    </edge>
    <edge id=":4080583605_1" function="internal">
        <lane id=":4080583605_1_0" index="0" disallow="tram rail_urban rail rail_electric rail_fast ship cable_car subway" speed="22.22" length="0.31" shape="16154.27,25878.56 16154.55,25878.70"/>
    </edge>
    <edge id=":503677930_0" function="internal">
        <lane id=":503677930_0_0" index="0" disallow="tram rail_urban rail rail_electric rail_fast ship cable_car subway" speed="6.12" length="9.59" shape="16292.40,26734.24 16289.73,26732.73 16287.55,26732.41 16285.86,26733.30 16284.66,26735.39"/>
    </edge>
    <edge id=":503677930_1" function="internal">
        <lane id=":503677930_1_0" index="0" disallow="tram rail_urban rail rail_electric rail_fast ship cable_car subway" speed="18.05" length="14.15" shape="16292.40,26734.24 16281.14,26725.68"/>
    </edge>
    <edge id=":503677930_2" function="internal">
        <lane id=":503677930_2_0" index="0" disallow="tram rail_urban rail rail_electric rail_fast ship cable_car subway" speed="3.65" length="4.67" shape="16292.40,26734.24 16291.90,26732.89 16292.04,26732.01 16292.84,26731.59 16294.28,26731.65"/>
    </edge>
    <edge id=":503677930_3" function="internal">
        <lane id=":503677930_3_0" index="0" disallow="tram rail_urban rail rail_electric rail_fast ship cable_car subway" speed="18.05" length="14.00" shape="16283.13,26723.18 16294.28,26731.65"/>
    </edge>
    <edge id=":503677930_4" function="internal">
        <lane id=":503677930_4_0" index="0" disallow="tram rail_urban rail rail_electric rail_fast ship cable_car subway" speed="8.85" length="13.14" shape="16283.13,26723.18 16284.94,26725.31 16285.80,26728.05 16285.70,26731.41 16284.66,26735.39"/>
    </edge>
    <edge id=":503677930_5" function="internal">
        <lane id=":503677930_5_0" index="0" disallow="tram rail_urban rail rail_electric rail_fast ship cable_car subway" speed="3.65" length="4.67" shape="16283.13,26723.18 16283.57,26724.56 16283.39,26725.43 16282.57,26725.81 16281.14,26725.68"/>
    </edge>
    <edge id=":503677930_6" function="internal">
        <lane id=":503677930_6_0" index="0" disallow="tram rail_urban rail rail_electric rail_fast ship cable_car subway" speed="6.51" length="8.88" shape="16282.11,26733.45 16283.29,26731.33 16283.52,26729.33 16282.80,26727.45 16281.14,26725.68"/>
    </edge>
    <edge id=":503677930_7" function="internal">
        <lane id=":503677930_7_0" index="0" disallow="tram rail_urban rail rail_electric rail_fast ship cable_car subway" speed="8.01" length="13.96" shape="16282.11,26733.45 16284.82,26730.77 16287.75,26729.58 16290.91,26729.87 16294.28,26731.65"/>
    </edge>
    <edge id=":503677930_8" function="internal">
        <lane id=":503677930_8_0" index="0" disallow="tram rail_urban rail rail_electric rail_fast ship cable_car subway" speed="3.79" length="4.67" shape="16282.11,26733.45 16283.47,26732.98 16284.35,26733.14 16284.74,26733.95 16284.66,26735.39"/>
    </edge>
    <edge id=":503682584_0" function="internal">
        <lane id=":503682584_0_0" index="0" disallow="tram rail_urban rail rail_electric rail_fast ship cable_car subway" speed="3.65" length="4.67" shape="16248.65,26714.19 16247.71,26713.10 16247.54,26712.22 16248.14,26711.55 16249.51,26711.11"/>
    </edge>
    <edge id=":503682586_0" function="internal">
        <lane id=":503682586_0_0" index="0" disallow="tram rail_urban rail rail_electric rail_fast ship cable_car subway" speed="22.22" length="0.31" shape="16324.37,26757.37 16324.12,26757.19"/>
    </edge>
    <edge id=":503682586_1" function="internal">
        <lane id=":503682586_1_0" index="0" disallow="tram rail_urban rail rail_electric rail_fast ship cable_car subway" speed="22.22" length="0.22" shape="16325.99,26754.60 16326.17,26754.72"/>
    </edge>
    <edge id=":503682589_0" function="internal">
        <lane id=":503682589_0_0" index="0" disallow="tram rail_urban rail rail_electric rail_fast ship cable_car subway" speed="9.70" length="14.51" shape="16382.92,26765.23 16384.64,26762.66 16385.34,26759.52 16385.03,26755.81 16383.71,26751.53"/>
    </edge>
    <edge id=":503682589_1" function="internal">