<?xml version="1.0" encoding="UTF-8"?>

<!-- generated on 2025-05-13 10:21:55 by Eclipse SUMO netedit Version 1.22.0
<neteditConfiguration xmlns:xsi="http://www.w3.org/2001/XMLSchema-instance" xsi:noNamespaceSchemaLocation="http://sumo.dlr.de/xsd/neteditConfiguration.xsd">

    <input>
        <sumocfg-file value="/home/epsilon/Documents/bachelor_thesis/thesis_2025_eth_cedric_zeiter/simulation/villages/Erstfeld/erstfeld_toy_model.sumocfg"/>
        <additional-files value="/home/epsilon/Documents/bachelor_thesis/thesis_2025_eth_cedric_zeiter/simulation/villages/Erstfeld/in_out_points.add.xml"/>
        <route-files value="/home/epsilon/Documents/bachelor_thesis/thesis_2025_eth_cedric_zeiter/simulation/villages/Erstfeld/demand.rou.xml"/>
        <sumo-net-file value="/home/epsilon/Documents/bachelor_thesis/thesis_2025_eth_cedric_zeiter/simulation/villages/Erstfeld/osm_erstfeld.net.xml"/>
    </input>

    <output>
        <output-file value="/home/epsilon/Documents/bachelor_thesis/thesis_2025_eth_cedric_zeiter/simulation/villages/Erstfeld/osm_erstfeld.net.xml"/>
        <output.street-names value="true"/>
    </output>

    <processing>
        <geometry.min-radius.fix.railways value="false"/>
        <geometry.avoid-overlap value="false"/>
        <geometry.max-grade.fix value="false"/>
        <offset.disable-normalization value="true"/>
        <lefthand value="0"/>
    </processing>

    <junctions>
        <no-turnarounds value="true"/>
        <junctions.corner-detail value="5"/>
        <junctions.limit-turn-speed value="5.50"/>
        <rectangular-lane-cut value="0"/>
    </junctions>

    <pedestrian>
        <walkingareas value="0"/>
    </pedestrian>

</neteditConfiguration>
-->

<net version="1.20" junctionCornerDetail="5" limitTurnSpeed="5.50" avoidOverlap="0" xmlns:xsi="http://www.w3.org/2001/XMLSchema-instance" xsi:noNamespaceSchemaLocation="http://sumo.dlr.de/xsd/net_file.xsd">

    <location netOffset="-455283.56,-5149384.03" convBoundary="16906.21,35024.89,18632.03,37731.22" origBoundary="8.309256,46.497869,8.861170,47.051866" projParameter="+proj=utm +zone=32 +ellps=WGS84 +datum=WGS84 +units=m +no_defs"/>

    <type id="highway.cycleway" priority="1" numLanes="1" speed="5.56" allow="bicycle" oneway="0" width="2.00"/>
    <type id="highway.footway" priority="1" numLanes="1" speed="2.78" allow="pedestrian" oneway="1" width="2.00"/>
    <type id="highway.motorway" priority="14" numLanes="2" speed="39.44" allow="private emergency authority army vip passenger hov taxi bus coach delivery truck trailer motorcycle evehicle custom1 custom2" oneway="1"/>
    <type id="highway.motorway_link" priority="9" numLanes="1" speed="22.22" allow="private emergency authority army vip passenger hov taxi bus coach delivery truck trailer motorcycle evehicle custom1 custom2" oneway="1"/>
    <type id="highway.path" priority="1" numLanes="1" speed="5.56" allow="pedestrian bicycle" oneway="0" width="2.00"/>
    <type id="highway.primary" priority="12" numLanes="2" speed="27.78" disallow="tram rail_urban rail rail_electric rail_fast ship" oneway="0"/>
    <type id="highway.residential" priority="3" numLanes="1" speed="13.89" disallow="tram rail_urban rail rail_electric rail_fast ship" oneway="0"/>
    <type id="highway.secondary" priority="11" numLanes="1" speed="27.78" disallow="tram rail_urban rail rail_electric rail_fast ship" oneway="0"/>
    <type id="highway.service" priority="1" numLanes="1" speed="5.56" allow="pedestrian delivery bicycle" oneway="0"/>
    <type id="highway.steps" priority="1" numLanes="1" speed="1.39" allow="pedestrian" oneway="1" width="2.00"/>
    <type id="highway.tertiary" priority="10" numLanes="1" speed="22.22" disallow="tram rail_urban rail rail_electric rail_fast ship" oneway="0"/>
    <type id="highway.track" priority="1" numLanes="1" speed="5.56" allow="pedestrian motorcycle moped bicycle" oneway="0"/>
    <type id="highway.unclassified" priority="4" numLanes="1" speed="13.89" disallow="tram rail_urban rail rail_electric rail_fast ship" oneway="0"/>

    <edge id=":10012831438_0" function="internal">
        <lane id=":10012831438_0_0" index="0" allow="pedestrian delivery bicycle" speed="3.65" length="4.67" shape="17529.46,36045.12 17528.54,36044.01 17528.39,36043.13 17529.00,36042.48 17530.38,36042.06"/>
    </edge>
    <edge id=":10012831439_0" function="internal">
        <lane id=":10012831439_0_0" index="0" allow="pedestrian delivery bicycle" speed="5.56" length="9.39" shape="17540.77,36048.51 17531.78,36045.82"/>
    </edge>
    <edge id=":10012831439_1" function="internal">
        <lane id=":10012831439_1_0" index="0" allow="pedestrian delivery bicycle" speed="5.56" length="10.15" shape="17540.77,36048.51 17538.26,36047.34 17536.71,36045.65 17536.15,36043.42 17536.55,36040.66"/>
    </edge>
    <edge id=":10012831439_2" function="internal">
        <lane id=":10012831439_2_0" index="0" allow="pedestrian delivery bicycle" speed="3.65" length="4.67" shape="17540.77,36048.51 17539.86,36047.40 17539.70,36046.52 17540.32,36045.87 17541.70,36045.45"/>
    </edge>
    <edge id=":10012831439_3" function="internal">
        <lane id=":10012831439_3_0" index="0" allow="pedestrian delivery bicycle" speed="5.05" length="5.01" shape="17539.62,36041.57 17539.42,36042.93 17539.70,36044.03 17540.46,36044.87 17541.70,36045.45"/>
    </edge>
    <edge id=":10012831439_4" function="internal">
        <lane id=":10012831439_4_0" index="0" allow="pedestrian delivery bicycle" speed="5.56" length="10.17" shape="17539.62,36041.57 17538.46,36044.11 17536.77,36045.66 17534.54,36046.23 17531.78,36045.82"/>
    </edge>
    <edge id=":10012831439_5" function="internal">
        <lane id=":10012831439_5_0" index="0" allow="pedestrian delivery bicycle" speed="3.65" length="4.67" shape="17539.62,36041.57 17538.51,36042.50 17537.63,36042.65 17536.98,36042.04 17536.55,36040.66"/>
    </edge>
    <edge id=":10012831439_6" function="internal">
        <lane id=":10012831439_6_0" index="0" allow="pedestrian delivery bicycle" speed="5.04" length="5.00" shape="17532.70,36042.75 17534.05,36042.95 17535.15,36042.67 17535.98,36041.91 17536.55,36040.66"/>
    </edge>
    <edge id=":10012831439_7" function="internal">
        <lane id=":10012831439_7_0" index="0" allow="pedestrian delivery bicycle" speed="5.56" length="9.40" shape="17532.70,36042.75 17541.70,36045.45"/>
    </edge>
    <edge id=":10012831439_8" function="internal">
        <lane id=":10012831439_8_0" index="0" allow="pedestrian delivery bicycle" speed="3.65" length="4.67" shape="17532.70,36042.75 17533.62,36043.86 17533.77,36044.74 17533.16,36045.39 17531.78,36045.82"/>
    </edge>
    <edge id=":10012831443_0" function="internal">
        <lane id=":10012831443_0_0" index="0" allow="pedestrian delivery bicycle" speed="3.65" length="4.67" shape="17568.38,36034.73 17569.31,36035.83 17569.48,36036.71 17568.87,36037.37 17567.50,36037.81"/>
    </edge>
    <edge id=":10012831472_0" function="internal">
        <lane id=":10012831472_0_0" index="0" disallow="tram rail_urban rail rail_electric rail_fast ship cable_car subway" speed="8.33" length="4.96" shape="17590.60,35957.10 17585.77,35956.00"/>
    </edge>
    <edge id=":10012831472_1" function="internal">
        <lane id=":10012831472_1_0" index="0" disallow="tram rail_urban rail rail_electric rail_fast ship cable_car subway" speed="8.33" length="4.87" shape="17586.48,35952.88 17591.23,35953.96"/>
    </edge>
    <edge id=":10012831488_0" function="internal">
        <lane id=":10012831488_0_0" index="0" allow="pedestrian delivery bicycle" speed="3.65" length="4.67" shape="17611.86,35916.24 17611.17,35914.98 17611.18,35914.08 17611.90,35913.56 17613.34,35913.40"/>
    </edge>
    <edge id=":10012831498_0" function="internal">
        <lane id=":10012831498_0_0" index="0" allow="pedestrian delivery bicycle" speed="3.65" length="4.67" shape="17525.96,35906.90 17524.56,35907.23 17523.70,35906.98 17523.39,35906.14 17523.62,35904.72"/>
    </edge>
    <edge id=":10087544528_0" function="internal">
        <lane id=":10087544528_0_0" index="0" allow="pedestrian motorcycle moped bicycle" speed="5.56" length="8.92" shape="18052.12,36664.39 18052.09,36661.74 18051.95,36659.93 18051.54,36658.16 18050.74,36655.64"/>
    </edge>
    <edge id=":10087544528_1" function="internal">
        <lane id=":10087544528_1_0" index="0" allow="pedestrian bicycle" speed="5.56" length="12.12" width="2.00" shape="18052.12,36664.39 18052.64,36661.31 18054.24,36659.42 18056.90,36658.71 18060.64,36659.17"/>
    </edge>
    <edge id=":10087544528_2" function="internal">
        <lane id=":10087544528_2_0" index="0" allow="pedestrian motorcycle moped bicycle" speed="3.71" length="4.90" shape="18052.12,36664.39 18052.53,36662.93 18053.20,36662.27 18054.13,36662.41 18055.32,36663.36"/>
    </edge>
    <edge id=":10087544528_3" function="internal">
        <lane id=":10087544528_3_0" index="0" allow="pedestrian bicycle" speed="4.72" length="5.54" width="2.00" shape="18059.12,36660.86 18057.45,36660.66 18056.26,36661.01 18055.55,36661.91 18055.32,36663.36"/>
    </edge>
    <edge id=":10087544528_4" function="internal">
        <lane id=":10087544528_4_0" index="0" allow="pedestrian bicycle" speed="5.56" length="10.23" width="2.00" shape="18059.12,36660.86 18055.88,36659.86 18053.40,36658.66 18051.69,36657.25 18050.74,36655.64"/>
    </edge>
    <edge id=":10087544528_5" function="internal">
        <lane id=":10087544528_5_0" index="0" allow="pedestrian bicycle" speed="3.01" length="3.31" width="2.00" shape="18059.12,36660.86 18058.87,36659.87 18059.04,36659.26 18059.63,36659.02 18060.64,36659.17"/>
    </edge>
    <edge id=":10087544528_6" function="internal">
        <lane id=":10087544528_6_0" index="0" allow="pedestrian bicycle" speed="5.56" length="8.55" width="2.00" shape="18053.78,36654.63 18054.59,36656.08 18056.01,36657.32 18058.02,36658.35 18060.64,36659.17"/>
    </edge>
    <edge id=":10087544528_7" function="internal">
        <lane id=":10087544528_7_0" index="0" allow="pedestrian motorcycle moped bicycle" speed="5.56" length="8.93" shape="18053.78,36654.63 18054.60,36657.15 18055.06,36658.91 18055.26,36660.71 18055.32,36663.36"/>
    </edge>
    <edge id=":10087544528_8" function="internal">
        <lane id=":10087544528_8_0" index="0" allow="pedestrian motorcycle moped bicycle" speed="3.65" length="4.67" shape="18053.78,36654.63 18053.39,36656.02 18052.76,36656.65 18051.88,36656.53 18050.74,36655.64"/>
    </edge>
    <edge id=":10087544568_0" function="internal">
        <lane id=":10087544568_0_0" index="0" allow="pedestrian bicycle" speed="2.89" length="2.92" width="2.00" shape="18182.17,36807.15 18181.60,36807.85 18181.08,36808.06 18180.60,36807.76 18180.17,36806.97"/>
    </edge>
    <edge id=":10761127007_0" function="internal">
        <lane id=":10761127007_0_0" index="0" disallow="tram rail_urban rail rail_electric rail_fast ship cable_car subway" speed="13.89" length="5.16" shape="18342.77,35471.34 18338.74,35468.12"/>
    </edge>
    <edge id=":10761127007_1" function="internal">
        <lane id=":10761127007_1_0" index="0" disallow="tram rail_urban rail rail_electric rail_fast ship cable_car subway" speed="13.89" length="5.15" shape="18340.75,35465.62 18344.77,35468.84"/>
    </edge>
    <edge id=":10761127081_0" function="internal">
        <lane id=":10761127081_0_0" index="0" allow="pedestrian delivery bicycle" speed="5.56" length="3.86" shape="18049.10,36240.86 18045.27,36240.42"/>
    </edge>
    <edge id=":10761127081_1" function="internal">
        <lane id=":10761127081_1_0" index="0" allow="pedestrian delivery bicycle" speed="3.65" length="1.44" shape="18049.10,36240.86 18047.99,36239.94"/>
    </edge>
    <edge id=":10761127081_4" function="internal">
        <lane id=":10761127081_4_0" index="0" allow="pedestrian delivery bicycle" speed="3.65" length="3.23" shape="18047.99,36239.94 18047.67,36239.10 18048.15,36238.35 18049.43,36237.67"/>
    </edge>
    <edge id=":10761127081_2" function="internal">
        <lane id=":10761127081_2_0" index="0" allow="pedestrian delivery bicycle" speed="5.56" length="3.73" shape="18045.73,36237.25 18049.43,36237.67"/>
    </edge>
    <edge id=":10761127081_3" function="internal">
        <lane id=":10761127081_3_0" index="0" allow="pedestrian delivery bicycle" speed="3.65" length="1.44" shape="18045.73,36237.25 18046.80,36238.21"/>
    </edge>
    <edge id=":10761127081_5" function="internal">
        <lane id=":10761127081_5_0" index="0" allow="pedestrian delivery bicycle" speed="3.65" length="3.23" shape="18046.80,36238.21 18047.08,36239.06 18046.57,36239.80 18045.27,36240.42"/>
    </edge>
    <edge id=":10761127083_0" function="internal">
        <lane id=":10761127083_0_0" index="0" allow="pedestrian delivery bicycle" speed="5.56" length="3.68" shape="18045.30,36259.97 18041.74,36259.06"/>
    </edge>
    <edge id=":10761127083_1" function="internal">
        <lane id=":10761127083_1_0" index="0" allow="pedestrian delivery bicycle" speed="3.65" length="1.44" shape="18045.30,36259.97 18044.35,36258.89"/>
    </edge>
    <edge id=":10761127083_4" function="internal">
        <lane id=":10761127083_4_0" index="0" allow="pedestrian delivery bicycle" speed="3.65" length="3.23" shape="18044.35,36258.89 18044.17,36258.01 18044.76,36257.34 18046.12,36256.87"/>
    </edge>
    <edge id=":10761127083_2" function="internal">
        <lane id=":10761127083_2_0" index="0" allow="pedestrian delivery bicycle" speed="5.56" length="3.78" shape="18042.45,36255.94 18046.12,36256.87"/>
    </edge>
    <edge id=":10761127083_3" function="internal">
        <lane id=":10761127083_3_0" index="0" allow="pedestrian delivery bicycle" speed="3.65" length="1.44" shape="18042.45,36255.94 18043.44,36256.99"/>
    </edge>
    <edge id=":10761127083_5" function="internal">
        <lane id=":10761127083_5_0" index="0" allow="pedestrian delivery bicycle" speed="3.65" length="3.23" shape="18043.44,36256.99 18043.65,36257.86 18043.08,36258.55 18041.74,36259.06"/>
    </edge>
    <edge id=":10761127118_0" function="internal">
        <lane id=":10761127118_0_0" index="0" allow="pedestrian delivery bicycle" speed="5.56" length="4.28" shape="18040.61,36221.15 18036.55,36219.77"/>
    </edge>
    <edge id=":10761127118_1" function="internal">
        <lane id=":10761127118_1_0" index="0" allow="pedestrian delivery bicycle" speed="3.65" length="1.44" shape="18040.61,36221.15 18039.73,36220.00"/>
    </edge>
    <edge id=":10761127118_4" function="internal">
        <lane id=":10761127118_4_0" index="0" allow="pedestrian delivery bicycle" speed="3.65" length="3.23" shape="18039.73,36220.00 18039.61,36219.12 18040.24,36218.49 18041.64,36218.12"/>
    </edge>
    <edge id=":10761127118_2" function="internal">
        <lane id=":10761127118_2_0" index="0" allow="pedestrian delivery bicycle" speed="5.56" length="4.28" shape="18037.59,36216.74 18041.64,36218.12"/>
    </edge>
    <edge id=":10761127118_3" function="internal">
        <lane id=":10761127118_3_0" index="0" allow="pedestrian delivery bicycle" speed="3.65" length="1.44" shape="18037.59,36216.74 18038.46,36217.88"/>
    </edge>
    <edge id=":10761127118_5" function="internal">
        <lane id=":10761127118_5_0" index="0" allow="pedestrian delivery bicycle" speed="3.65" length="3.23" shape="18038.46,36217.88 18038.58,36218.77 18037.95,36219.40 18036.55,36219.77"/>
    </edge>
    <edge id=":10761127140_0" function="internal">
        <lane id=":10761127140_0_0" index="0" disallow="tram rail_urban rail rail_electric rail_fast ship cable_car subway" speed="13.89" length="5.33" shape="17961.14,36482.10 17957.78,36486.23"/>
    </edge>
    <edge id=":10761127140_1" function="internal">
        <lane id=":10761127140_1_0" index="0" disallow="tram rail_urban rail rail_electric rail_fast ship cable_car subway" speed="13.89" length="5.31" shape="17955.30,36484.21 17958.65,36480.09"/>
    </edge>
    <edge id=":10761127186_0" function="internal">
        <lane id=":10761127186_0_0" index="0" disallow="tram rail_urban rail rail_electric rail_fast ship cable_car subway" speed="11.11" length="0.99" shape="17818.14,36646.63 17819.10,36646.85"/>
    </edge>
    <edge id=":10761127186_1" function="internal">
        <lane id=":10761127186_1_0" index="0" disallow="tram rail_urban rail rail_electric rail_fast ship cable_car subway" speed="11.11" length="0.95" shape="17819.75,36643.71 17818.83,36643.51"/>
    </edge>
    <edge id=":10761127187_0" function="internal">
        <lane id=":10761127187_0_0" index="0" disallow="tram rail_urban rail rail_electric rail_fast ship cable_car subway" speed="13.89" length="5.07" shape="17896.23,36561.35 17893.04,36565.28"/>
    </edge>
    <edge id=":10761127187_1" function="internal">
        <lane id=":10761127187_1_0" index="0" disallow="tram rail_urban rail rail_electric rail_fast ship cable_car subway" speed="13.89" length="5.11" shape="17890.54,36563.28 17893.76,36559.31"/>
    </edge>
    <edge id=":10761127257_0" function="internal">
        <lane id=":10761127257_0_0" index="0" disallow="tram rail_urban rail rail_electric rail_fast ship cable_car subway" speed="16.67" length="7.96" shape="17827.71,37091.82 17822.80,37098.08"/>
    </edge>
    <edge id=":10761127257_1" function="internal">
        <lane id=":10761127257_1_0" index="0" disallow="tram rail_urban rail rail_electric rail_fast ship cable_car subway" speed="16.67" length="8.41" shape="17820.27,37096.13 17821.38,37093.87 17821.46,37091.97 17821.55,37090.08 17822.69,37087.84"/>
        <lane id=":10761127257_1_1" index="1" disallow="tram rail_urban rail rail_electric rail_fast ship cable_car subway" speed="16.67" length="8.41" shape="17820.27,37096.13 17825.20,37089.83"/>
    </edge>
    <edge id=":10774121974_0" function="internal">
        <lane id=":10774121974_0_0" index="0" allow="pedestrian delivery bicycle" speed="4.98" length="5.08" shape="17996.16,35790.31 17994.88,35789.74 17993.74,35789.73 17992.76,35790.29 17991.92,35791.41"/>
    </edge>
    <edge id=":10774121974_1" function="internal">
        <lane id=":10774121974_1_0" index="0" allow="pedestrian delivery bicycle" speed="5.56" length="9.41" shape="17996.16,35790.31 17988.19,35785.30"/>
    </edge>
    <edge id=":10774121974_2" function="internal">
        <lane id=":10774121974_2_0" index="0" allow="pedestrian delivery bicycle" speed="3.65" length="4.67" shape="17996.16,35790.31 17995.57,35788.99 17995.66,35788.10 17996.42,35787.64 17997.86,35787.60"/>
    </edge>
    <edge id=":10774121974_3" function="internal">
        <lane id=":10774121974_3_0" index="0" allow="pedestrian delivery bicycle" speed="5.56" length="9.41" shape="17989.89,35782.59 17997.86,35787.60"/>
    </edge>
    <edge id=":10774121974_4" function="internal">
        <lane id=":10774121974_4_0" index="0" allow="pedestrian delivery bicycle" speed="5.56" length="10.19" shape="17989.89,35782.59 17991.93,35784.34 17992.95,35786.39 17992.94,35788.75 17991.92,35791.41"/>
    </edge>
    <edge id=":10774121974_5" function="internal">
        <lane id=":10774121974_5_0" index="0" allow="pedestrian delivery bicycle" speed="3.65" length="4.67" shape="17989.89,35782.59 17990.48,35783.90 17990.40,35784.79 17989.63,35785.26 17988.19,35785.30"/>
    </edge>
    <edge id=":10774121974_6" function="internal">
        <lane id=":10774121974_6_0" index="0" allow="pedestrian delivery bicycle" speed="5.25" length="5.26" shape="17989.11,35789.88 17989.66,35788.48 17989.69,35787.24 17989.20,35786.18 17988.19,35785.30"/>
    </edge>
    <edge id=":10774121974_7" function="internal">
        <lane id=":10774121974_7_0" index="0" allow="pedestrian delivery bicycle" speed="5.56" length="10.47" shape="17989.11,35789.88 17990.84,35787.56 17992.88,35786.41 17995.22,35786.42 17997.86,35787.60"/>
    </edge>
    <edge id=":10774121974_8" function="internal">
        <lane id=":10774121974_8_0" index="0" allow="pedestrian delivery bicycle" speed="3.65" length="4.67" shape="17989.11,35789.88 17990.38,35789.21 17991.28,35789.24 17991.79,35789.98 17991.92,35791.41"/>
    </edge>
    <edge id=":10774121982_0" function="internal">
        <lane id=":10774121982_0_0" index="0" allow="pedestrian delivery bicycle" speed="5.56" length="9.76" shape="17961.25,35850.71 17954.66,35843.51"/>
    </edge>
    <edge id=":10774121982_1" function="internal">
        <lane id=":10774121982_1_0" index="0" allow="pedestrian delivery bicycle" speed="5.56" length="10.58" shape="17961.25,35850.71 17960.01,35848.73 17959.61,35846.42 17960.05,35843.79 17961.34,35840.82"/>
    </edge>
    <edge id=":10774121982_2" function="internal">
        <lane id=":10774121982_2_0" index="0" allow="pedestrian delivery bicycle" speed="3.65" length="4.67" shape="17961.25,35850.71 17961.03,35849.29 17961.35,35848.45 17962.21,35848.21 17963.61,35848.55"/>
    </edge>
    <edge id=":10774121982_3" function="internal">
        <lane id=":10774121982_3_0" index="0" allow="pedestrian delivery bicycle" speed="5.56" length="6.61" shape="17964.15,35842.36 17963.25,35844.34 17962.86,35846.03 17962.98,35847.43 17963.61,35848.55"/>
    </edge>
    <edge id=":10774121982_4" function="internal">
        <lane id=":10774121982_4_0" index="0" allow="pedestrian delivery bicycle" speed="5.56" length="11.99" shape="17964.15,35842.36 17962.08,35845.13 17959.81,35846.25 17957.34,35845.71 17954.66,35843.51"/>
    </edge>
    <edge id=":10774121982_5" function="internal">
        <lane id=":10774121982_5_0" index="0" allow="pedestrian delivery bicycle" speed="3.65" length="4.67" shape="17964.15,35842.36 17962.87,35843.03 17961.98,35842.99 17961.47,35842.26 17961.34,35840.82"/>
    </edge>
    <edge id=":10774121982_6" function="internal">
        <lane id=":10774121982_6_0" index="0" allow="pedestrian delivery bicycle" speed="4.76" length="5.46" shape="17957.02,35841.35 17958.24,35842.35 17959.36,35842.60 17960.40,35842.09 17961.34,35840.82"/>
    </edge>
    <edge id=":10774121982_7" function="internal">
        <lane id=":10774121982_7_0" index="0" allow="pedestrian delivery bicycle" speed="5.56" length="9.76" shape="17957.02,35841.35 17963.61,35848.55"/>
    </edge>
    <edge id=":10774121982_8" function="internal">
        <lane id=":10774121982_8_0" index="0" allow="pedestrian delivery bicycle" speed="3.65" length="4.67" shape="17957.02,35841.35 17957.24,35842.77 17956.92,35843.61 17956.06,35843.86 17954.66,35843.51"/>
    </edge>
    <edge id=":10774121985_0" function="internal">
        <lane id=":10774121985_0_0" index="0" allow="pedestrian delivery bicycle" speed="4.80" length="5.37" shape="17979.06,35779.56 17977.65,35778.93 17976.51,35778.98 17975.62,35779.71 17974.98,35781.11"/>
    </edge>
    <edge id=":10774121985_1" function="internal">
        <lane id=":10774121985_1_0" index="0" allow="pedestrian delivery bicycle" speed="5.56" length="10.47" shape="17979.06,35779.56 17976.57,35777.63 17975.00,35775.56 17974.35,35773.33 17974.61,35770.94"/>
    </edge>
    <edge id=":10774121985_2" function="internal">
        <lane id=":10774121985_2_0" index="0" allow="pedestrian delivery bicycle" speed="3.65" length="4.67" shape="17979.06,35779.56 17978.47,35778.24 17978.55,35777.35 17979.32,35776.89 17980.76,35776.85"/>
    </edge>
    <edge id=":10774121985_3" function="internal">
        <lane id=":10774121985_3_0" index="0" allow="pedestrian delivery bicycle" speed="5.56" length="6.31" shape="17977.68,35771.84 17977.59,35773.13 17978.07,35774.39 17979.13,35775.63 17980.76,35776.85"/>
    </edge>
    <edge id=":10774121985_4" function="internal">
        <lane id=":10774121985_4_0" index="0" allow="pedestrian delivery bicycle" speed="5.56" length="9.65" shape="17977.68,35771.84 17974.98,35781.11"/>
    </edge>
    <edge id=":10774121985_5" function="internal">
        <lane id=":10774121985_5_0" index="0" allow="pedestrian delivery bicycle" speed="3.65" length="4.67" shape="17977.68,35771.84 17976.58,35772.77 17975.70,35772.93 17975.04,35772.32 17974.61,35770.94"/>
    </edge>
    <edge id=":10774121985_6" function="internal">
        <lane id=":10774121985_6_0" index="0" allow="pedestrian delivery bicycle" speed="5.56" length="9.65" shape="17971.91,35780.21 17974.61,35770.94"/>
    </edge>
    <edge id=":10774121985_7" function="internal">
        <lane id=":10774121985_7_0" index="0" allow="pedestrian delivery bicycle" speed="5.56" length="11.66" shape="17971.91,35780.21 17973.29,35777.17 17975.22,35775.60 17977.71,35775.49 17980.76,35776.85"/>
    </edge>
    <edge id=":10774121985_8" function="internal">
        <lane id=":10774121985_8_0" index="0" allow="pedestrian delivery bicycle" speed="3.65" length="4.67" shape="17971.91,35780.21 17973.01,35779.28 17973.89,35779.12 17974.55,35779.73 17974.98,35781.11"/>
    </edge>
    <edge id=":10935285225_0" function="internal">
        <lane id=":10935285225_0_0" index="0" disallow="tram rail_urban rail rail_electric rail_fast ship cable_car subway" speed="13.89" length="0.31" shape="16908.24,37420.07 16908.20,37420.38"/>
    </edge>
    <edge id=":10935285225_1" function="internal">
        <lane id=":10935285225_1_0" index="0" disallow="tram rail_urban rail rail_electric rail_fast ship cable_car subway" speed="13.89" length="0.29" shape="16905.02,37420.02 16905.06,37419.73"/>
    </edge>
    <edge id=":10936654729_0" function="internal">
        <lane id=":10936654729_0_0" index="0" allow="pedestrian bicycle" speed="2.90" length="2.57" width="2.00" shape="17313.32,36499.90 17313.81,36498.76 17314.04,36498.06 17314.02,36497.79 17313.74,36497.97"/>
    </edge>
    <edge id=":10936654729_1" function="internal">
        <lane id=":10936654729_1_0" index="0" allow="pedestrian bicycle" speed="9.72" length="6.99" width="2.00" shape="17313.32,36499.90 17313.67,36497.90 17313.28,36496.30 17313.08,36494.84 17314.01,36493.25"/>
    </edge>
    <edge id=":10936654729_2" function="internal">
        <lane id=":10936654729_2_0" index="0" allow="pedestrian bicycle" speed="3.39" length="3.49" width="2.00" shape="17313.32,36499.90 17313.72,36498.90 17314.24,36498.49 17314.89,36498.65 17315.66,36499.41"/>
    </edge>
    <edge id=":10936654729_3" function="internal">
        <lane id=":10936654729_3_0" index="0" allow="pedestrian bicycle" speed="5.70" length="4.08" width="2.00" shape="17316.23,36495.56 17315.72,36496.25 17315.46,36497.13 17315.44,36498.18 17315.66,36499.41"/>
    </edge>
    <edge id=":10936654729_4" function="internal">
        <lane id=":10936654729_4_0" index="0" disallow="tram rail_urban rail rail_electric rail_fast ship cable_car subway" speed="13.89" length="3.47" shape="17316.23,36495.56 17313.74,36497.97"/>
    </edge>
    <edge id=":10936654729_5" function="internal">
        <lane id=":10936654729_5_0" index="0" disallow="tram rail_urban rail rail_electric rail_fast ship cable_car subway" speed="13.89" length="3.50" shape="17311.50,36495.69 17314.01,36493.25"/>
    </edge>
    <edge id=":10936654729_6" function="internal">
        <lane id=":10936654729_6_0" index="0" allow="pedestrian bicycle" speed="5.05" length="1.52" width="2.00" shape="17311.50,36495.69 17312.71,36494.99 17312.83,36495.03"/>
    </edge>
    <edge id=":10936654729_7" function="internal">
        <lane id=":10936654729_7_0" index="0" allow="pedestrian bicycle" speed="5.05" length="5.52" width="2.00" shape="17312.83,36495.03 17313.81,36495.37 17314.79,36496.85 17315.66,36499.41"/>
    </edge>
    <edge id=":10936654736_0" function="internal">
        <lane id=":10936654736_0_0" index="0" allow="pedestrian bicycle" speed="5.56" length="13.15" width="2.00" shape="17241.66,36581.34 17230.14,36587.69"/>
    </edge>
    <edge id=":10936654736_1" function="internal">
        <lane id=":10936654736_1_0" index="0" allow="pedestrian bicycle" speed="4.69" length="8.97" width="2.00" shape="17241.66,36581.34 17239.07,36581.96 17236.67,36581.42 17235.33,36580.07 17235.92,36578.22"/>
    </edge>
    <edge id=":10936654736_2" function="internal">
        <lane id=":10936654736_2_0" index="0" allow="pedestrian bicycle" speed="2.89" length="2.92" width="2.00" shape="17241.66,36581.34 17240.76,36581.26 17240.30,36580.94 17240.28,36580.38 17240.70,36579.58"/>
    </edge>
    <edge id=":10936654736_3" function="internal">
        <lane id=":10936654736_3_0" index="0" allow="pedestrian bicycle" speed="4.38" length="7.67" width="2.00" shape="17238.59,36578.29 17236.97,36580.25 17236.78,36581.11 17238.02,36580.89 17240.70,36579.58"/>
    </edge>
    <edge id=":10936654736_4" function="internal">
        <lane id=":10936654736_4_0" index="0" allow="pedestrian bicycle" speed="5.56" length="12.73" width="2.00" shape="17238.59,36578.29 17236.44,36580.95 17234.71,36583.43 17232.81,36585.69 17230.14,36587.69"/>
    </edge>
    <edge id=":10936654736_5" function="internal">
        <lane id=":10936654736_5_0" index="0" allow="pedestrian bicycle" speed="3.19" length="3.90" width="2.00" shape="17238.59,36578.29 17237.90,36579.27 17237.22,36579.59 17236.56,36579.24 17235.92,36578.22"/>
    </edge>
    <edge id=":10936654736_6" function="internal">
        <lane id=":10936654736_6_0" index="0" allow="pedestrian bicycle" speed="5.56" length="10.40" width="2.00" shape="17229.15,36585.96 17231.56,36584.21 17232.88,36582.53 17234.03,36580.62 17235.92,36578.22"/>
    </edge>
    <edge id=":10936654736_7" function="internal">
        <lane id=":10936654736_7_0" index="0" allow="pedestrian bicycle" speed="5.56" length="13.19" width="2.00" shape="17229.15,36585.96 17240.70,36579.58"/>
    </edge>
    <edge id=":10936654736_8" function="internal">
        <lane id=":10936654736_8_0" index="0" allow="pedestrian bicycle" speed="2.89" length="2.92" width="2.00" shape="17229.15,36585.96 17230.05,36586.02 17230.51,36586.33 17230.54,36586.89 17230.14,36587.69"/>
    </edge>
    <edge id=":10936685217_0" function="internal">